Atazanavir_AIDS_148192
                    3D
 Structure written by MMmdl.
103105  0  0  1  0            999 V2000
   -0.9424   -1.3012   -0.8865 O   0  0  0  0  0  0
   -2.4411    2.5448   -1.6006 O   0  0  0  0  0  0
    0.9439    1.5987   -3.0785 O   0  0  0  0  0  0
   -5.4852    5.1246    0.5840 O   0  0  0  0  0  0
   -2.7144   -0.1366   -5.3911 O   0  0  0  0  0  0
   -4.6842    3.4340    1.9013 O   0  0  0  0  0  0
   -1.6178   -1.7058   -4.1383 O   0  0  0  0  0  0
   -2.2173    1.0481    0.1029 N   0  0  0  0  0  0
    1.9108   -0.0149   -1.0380 N   0  0  0  0  0  0
   -4.9869    3.1989   -0.4119 N   0  0  0  0  0  0
    1.5438   -0.4751   -2.3123 N   0  0  0  0  0  0
   -0.5232    0.1259   -5.1099 N   0  0  0  0  0  0
    5.1912    4.9215    3.0834 N   0  0  0  0  0  0
   -5.2741    0.9396   -1.5404 C   0  0  0  0  0  0
   -0.7515    0.9342    0.1163 C   0  0  2  0  0  0
   -4.4686    1.8208   -0.5130 C   0  0  1  0  0  0
   -0.2975   -0.5568    0.1355 C   0  0  2  0  0  0
    1.9397    0.0643   -5.7386 C   0  0  0  0  0  0
    1.2405   -0.7684    0.0326 C   0  0  0  0  0  0
    0.8352   -0.2218   -4.6508 C   0  0  1  0  0  0
   -0.1477    1.7653    1.2794 C   0  0  0  0  0  0
   -2.9322    1.8415   -0.7154 C   0  0  0  0  0  0
   -6.7710    0.8872   -1.1382 C   0  0  0  0  0  0
   -4.7458   -0.5193   -1.5704 C   0  0  0  0  0  0
   -5.1922    1.5217   -2.9765 C   0  0  0  0  0  0
    1.1052    0.3869   -3.2518 C   0  0  0  0  0  0
    1.6135   -0.7077   -7.0441 C   0  0  0  0  0  0
    3.3402   -0.4013   -5.2596 C   0  0  0  0  0  0
    2.0198    1.5728   -6.0948 C   0  0  0  0  0  0
    3.3682    0.0374   -0.9050 C   0  0  0  0  0  0
   -0.4105    3.2629    1.1678 C   0  0  0  0  0  0
    3.7877    0.9767    0.2168 C   0  0  0  0  0  0
   -5.0226    3.8783    0.8009 C   0  0  0  0  0  0
    0.2576    4.0139    0.1968 C   0  0  0  0  0  0
   -1.3299    3.8795    2.0204 C   0  0  0  0  0  0
   -1.6234   -0.6697   -4.8086 C   0  0  0  0  0  0
    4.3163    0.4665    1.4014 C   0  0  0  0  0  0
    3.6252    2.3531    0.0637 C   0  0  0  0  0  0
    0.0045    5.3773    0.0763 C   0  0  0  0  0  0
   -1.5832    5.2430    1.8994 C   0  0  0  0  0  0
   -0.9157    5.9855    0.9277 C   0  0  0  0  0  0
    4.6655    1.3318    2.4343 C   0  0  0  0  0  0
    3.9740    3.2137    1.0996 C   0  0  0  0  0  0
    4.4962    2.7187    2.3051 C   0  0  0  0  0  0
   -5.5991    6.0528    1.6534 C   0  0  0  0  0  0
    4.8670    3.6409    3.4265 C   0  0  0  0  0  0
   -3.9565   -0.8253   -5.3721 C   0  0  0  0  0  0
    4.8641    3.2298    4.7696 C   0  0  0  0  0  0
    5.2115    4.1446    5.7657 C   0  0  0  0  0  0
    5.5277    5.7984    4.0630 C   0  0  0  0  0  0
    5.5512    5.4501    5.4126 C   0  0  0  0  0  0
   -0.3783    1.3552   -0.8178 H   0  0  0  0  0  0
   -4.6560    1.3226    0.4432 H   0  0  0  0  0  0
   -0.6272   -1.0001    1.0763 H   0  0  0  0  0  0
    1.4593   -1.8317   -0.0844 H   0  0  0  0  0  0
    1.6751   -0.5045    0.9967 H   0  0  0  0  0  0
    0.8782   -1.3096   -4.5375 H   0  0  0  0  0  0
   -0.5183    1.3944    2.2366 H   0  0  0  0  0  0
    0.9337    1.6360    1.3222 H   0  0  0  0  0  0
   -2.7127    0.4832    0.7771 H   0  0  0  0  0  0
   -7.3470    0.2565   -1.8171 H   0  0  0  0  0  0
   -7.2361    1.8736   -1.1580 H   0  0  0  0  0  0
   -6.9018    0.4786   -0.1353 H   0  0  0  0  0  0
   -4.7663   -0.9743   -0.5793 H   0  0  0  0  0  0
   -3.7223   -0.5789   -1.9434 H   0  0  0  0  0  0
   -5.3502   -1.1497   -2.2241 H   0  0  0  0  0  0
   -5.7773    0.9265   -3.6787 H   0  0  0  0  0  0
   -4.1704    1.5336   -3.3569 H   0  0  0  0  0  0
   -5.5796    2.5397   -3.0277 H   0  0  0  0  0  0
   -5.2411    3.6826   -1.2606 H   0  0  0  0  0  0
    2.3865   -0.5613   -7.8002 H   0  0  0  0  0  0
    0.6746   -0.3794   -7.4917 H   0  0  0  0  0  0
    1.5396   -1.7817   -6.8677 H   0  0  0  0  0  0
    3.3479   -1.4642   -5.0142 H   0  0  0  0  0  0
    3.6779    0.1475   -4.3800 H   0  0  0  0  0  0
    4.0972   -0.2455   -6.0295 H   0  0  0  0  0  0
    2.7599    1.7567   -6.8749 H   0  0  0  0  0  0
    2.3159    2.1822   -5.2409 H   0  0  0  0  0  0
    1.0683    1.9559   -6.4654 H   0  0  0  0  0  0
    1.7559   -1.4472   -2.4834 H   0  0  0  0  0  0
    3.7791   -0.9632   -0.7574 H   0  0  0  0  0  0
    3.8161    0.4199   -1.8247 H   0  0  0  0  0  0
   -0.6566    0.9893   -5.6157 H   0  0  0  0  0  0
   -0.6565   -2.2154   -0.8284 H   0  0  0  0  0  0
    0.9613    3.5398   -0.4715 H   0  0  0  0  0  0
   -1.8575    3.3041    2.7671 H   0  0  0  0  0  0
    4.4493   -0.5980    1.5284 H   0  0  0  0  0  0
    3.2160    2.7547   -0.8523 H   0  0  0  0  0  0
    0.5155    5.9587   -0.6767 H   0  0  0  0  0  0
   -2.2975    5.7204    2.5535 H   0  0  0  0  0  0
   -1.1149    7.0426    0.8318 H   0  0  0  0  0  0
    5.0776    0.9072    3.3372 H   0  0  0  0  0  0
    3.8221    4.2742    0.9586 H   0  0  0  0  0  0
   -5.9896    6.9999    1.2814 H   0  0  0  0  0  0
   -4.6274    6.2432    2.1112 H   0  0  0  0  0  0
   -6.2787    5.6837    2.4228 H   0  0  0  0  0  0
   -4.7280   -0.2094   -5.8344 H   0  0  0  0  0  0
   -4.2690   -1.0515   -4.3526 H   0  0  0  0  0  0
   -3.8897   -1.7617   -5.9278 H   0  0  0  0  0  0
    4.5887    2.2242    5.0499 H   0  0  0  0  0  0
    5.2139    3.8440    6.8030 H   0  0  0  0  0  0
    5.7808    6.7999    3.7480 H   0  0  0  0  0  0
    5.8226    6.1742    6.1667 H   0  0  0  0  0  0
  1 17  1  0  0  0
  1 84  1  0  0  0
  2 22  2  0  0  0
  3 26  2  0  0  0
  4 33  1  0  0  0
  4 45  1  0  0  0
  5 36  1  0  0  0
  5 47  1  0  0  0
  6 33  2  0  0  0
  7 36  2  0  0  0
  8 15  1  0  0  0
  8 22  1  0  0  0
  8 60  1  0  0  0
  9 11  1  0  0  0
  9 19  1  0  0  0
  9 30  1  0  0  0
 10 16  1  0  0  0
 10 33  1  0  0  0
 10 70  1  0  0  0
 11 26  1  0  0  0
 11 80  1  0  0  0
 12 20  1  0  0  0
 12 36  1  0  0  0
 12 83  1  0  0  0
 13 46  1  0  0  0
 13 50  2  0  0  0
 14 16  1  0  0  0
 14 23  1  0  0  0
 14 24  1  0  0  0
 14 25  1  0  0  0
 15 17  1  0  0  0
 15 21  1  0  0  0
 15 52  1  0  0  0
 16 22  1  0  0  0
 16 53  1  0  0  0
 17 19  1  0  0  0
 17 54  1  0  0  0
 18 20  1  0  0  0
 18 27  1  0  0  0
 18 28  1  0  0  0
 18 29  1  0  0  0
 19 55  1  0  0  0
 19 56  1  0  0  0
 20 26  1  0  0  0
 20 57  1  0  0  0
 21 31  1  0  0  0
 21 58  1  0  0  0
 21 59  1  0  0  0
 23 61  1  0  0  0
 23 62  1  0  0  0
 23 63  1  0  0  0
 24 64  1  0  0  0
 24 65  1  0  0  0
 24 66  1  0  0  0
 25 67  1  0  0  0
 25 68  1  0  0  0
 25 69  1  0  0  0
 27 71  1  0  0  0
 27 72  1  0  0  0
 27 73  1  0  0  0
 28 74  1  0  0  0
 28 75  1  0  0  0
 28 76  1  0  0  0
 29 77  1  0  0  0
 29 78  1  0  0  0
 29 79  1  0  0  0
 30 32  1  0  0  0
 30 81  1  0  0  0
 30 82  1  0  0  0
 31 34  2  0  0  0
 31 35  1  0  0  0
 32 37  2  0  0  0
 32 38  1  0  0  0
 34 39  1  0  0  0
 34 85  1  0  0  0
 35 40  2  0  0  0
 35 86  1  0  0  0
 37 42  1  0  0  0
 37 87  1  0  0  0
 38 43  2  0  0  0
 38 88  1  0  0  0
 39 41  2  0  0  0
 39 89  1  0  0  0
 40 41  1  0  0  0
 40 90  1  0  0  0
 41 91  1  0  0  0
 42 44  2  0  0  0
 42 92  1  0  0  0
 43 44  1  0  0  0
 43 93  1  0  0  0
 44 46  1  0  0  0
 45 94  1  0  0  0
 45 95  1  0  0  0
 45 96  1  0  0  0
 46 48  2  0  0  0
 47 97  1  0  0  0
 47 98  1  0  0  0
 47 99  1  0  0  0
 48 49  1  0  0  0
 48100  1  0  0  0
 49 51  2  0  0  0
 49101  1  0  0  0
 50 51  1  0  0  0
 50102  1  0  0  0
 51103  1  0  0  0
M  END
> <s_m_entry_id>
36

> <s_m_entry_name>
Atazanavir2D_AIDS_148192.1

> <PUBCHEM_COMPOUND_CID>
148192

> <PUBCHEM_COMPOUND_CANONICALIZED>
1

> <PUBCHEM_CACTVS_COMPLEXITY>
1110

> <PUBCHEM_CACTVS_HBOND_ACCEPTOR>
9

> <PUBCHEM_CACTVS_HBOND_DONOR>
5

> <PUBCHEM_CACTVS_ROTATABLE_BOND>
18

> <PUBCHEM_CACTVS_SUBSKEYS>
AAADcfB/uAAAAAAAAAAAAAAAAAAAAAAAAAA8YIAAAAAAAAAB0AAAHgAYCAAADjzhngY+iJLqFgCoAzV3XACCgCAxAiAa+KG4ZJkKcPLA0bGUYAhklgDYyAeQwOAPQAAAAAAAAACAAAAAAAAAAAAAAAAAAA==

> <PUBCHEM_IUPAC_OPENEYE_NAME>
methyl N-[(1S)-1-[[(1S,2S)-1-benzyl-2-hydroxy-3-[[[(2S)-2-(methoxycarbonylamino)-3,3-dimethyl-butanoyl]amino]-[[4-(2-pyridyl)phenyl]methyl]amino]propyl]carbamoyl]-2,2-dimethyl-propyl]carbamate

> <PUBCHEM_IUPAC_CAS_NAME>
N-[(2S)-1-[2-[(2S,3S)-2-hydroxy-3-[[(2S)-2-(methoxycarbonylamino)-3,3-dimethyl-1-oxobutyl]amino]-4-phenylbutyl]-2-[[4-(2-pyridinyl)phenyl]methyl]hydrazinyl]-3,3-dimethyl-1-oxobutan-2-yl]carbamic acid methyl ester

> <PUBCHEM_IUPAC_NAME_MARKUP>
methyl <I>N</I>-[(2<I>S</I>)-1-[2-[(2<I>S</I>,3<I>S</I>)-2-hydroxy-3-[[(2<I>S</I>)-2-(methoxycarbonylamino)-3,3-dimethylbutanoyl]amino]-4-phenylbutyl]-2-[(4-pyridin-2-ylphenyl)methyl]hydrazinyl]-3,3-dimethyl-1-oxobutan-2-yl]carbamate

> <PUBCHEM_IUPAC_NAME>
methyl N-[(2S)-1-[2-[(2S,3S)-2-hydroxy-3-[[(2S)-2-(methoxycarbonylamino)-3,3-dimethylbutanoyl]amino]-4-phenylbutyl]-2-[(4-pyridin-2-ylphenyl)methyl]hydrazinyl]-3,3-dimethyl-1-oxobutan-2-yl]carbamate

> <PUBCHEM_IUPAC_SYSTEMATIC_NAME>
methyl N-[(2S)-1-[2-[(2S,3S)-3-[[(2S)-2-(methoxycarbonylamino)-3,3-dimethyl-butanoyl]amino]-2-oxidanyl-4-phenyl-butyl]-2-[(4-pyridin-2-ylphenyl)methyl]hydrazinyl]-3,3-dimethyl-1-oxidanylidene-butan-2-yl]carbamate

> <PUBCHEM_IUPAC_TRADITIONAL_NAME>
N-[(1S)-1-[[(1S,2S)-1-benzyl-3-[[[(2S)-2-(carbomethoxyamino)-3,3-dimethyl-butanoyl]amino]-[4-(2-pyridyl)benzyl]amino]-2-hydroxy-propyl]carbamoyl]-2,2-dimethyl-propyl]carbamic acid methyl ester

> <PUBCHEM_IUPAC_INCHI>
InChI=1S/C38H52N6O7/c1-37(2,3)31(41-35(48)50-7)33(46)40-29(22-25-14-10-9-11-15-25)30(45)24-44(43-34(47)32(38(4,5)6)42-36(49)51-8)23-26-17-19-27(20-18-26)28-16-12-13-21-39-28/h9-21,29-32,45H,22-24H2,1-8H3,(H,40,46)(H,41,48)(H,42,49)(H,43,47)/t29-,30-,31+,32+/m0/s1

> <PUBCHEM_IUPAC_INCHIKEY>
AXRYRYVKAWYZBR-GASGPIRDSA-N

> <PUBCHEM_XLOGP3_AA>
5.6

> <PUBCHEM_EXACT_MASS>
704.389748

> <PUBCHEM_MOLECULAR_FORMULA>
C38H52N6O7

> <PUBCHEM_MOLECULAR_WEIGHT>
704.9

> <PUBCHEM_OPENEYE_CAN_SMILES>
CC(C)(C)C(C(=O)NC(CC1=CC=CC=C1)C(CN(CC2=CC=C(C=C2)C3=CC=CC=N3)NC(=O)C(C(C)(C)C)NC(=O)OC)O)NC(=O)OC

> <PUBCHEM_OPENEYE_ISO_SMILES>
CC(C)(C)[C@@H](C(=O)N[C@@H](CC1=CC=CC=C1)[C@H](CN(CC2=CC=C(C=C2)C3=CC=CC=N3)NC(=O)[C@H](C(C)(C)C)NC(=O)OC)O)NC(=O)OC

> <PUBCHEM_MONOISOTOPIC_WEIGHT>
704.389748

> <PUBCHEM_TOTAL_CHARGE>
0

> <PUBCHEM_HEAVY_ATOM_COUNT>
51

> <PUBCHEM_ATOM_DEF_STEREO_COUNT>
4

> <PUBCHEM_ATOM_UDEF_STEREO_COUNT>
0

> <PUBCHEM_BOND_DEF_STEREO_COUNT>
0

> <PUBCHEM_BOND_UDEF_STEREO_COUNT>
0

> <PUBCHEM_ISOTOPIC_ATOM_COUNT>
0

> <PUBCHEM_COMPONENT_COUNT>
1

> <PUBCHEM_CACTVS_TAUTO_COUNT>
-1

> <PUBCHEM_COORDINATE_TYPE>
1
5
255

> <PUBCHEM_BONDANNOTATIONS>
17  1  6
16  10  5
20  12  6
13  46  8
13  50  8
31  34  8
31  35  8
32  37  8
32  38  8
34  39  8
35  40  8
37  42  8
38  43  8
39  41  8
40  41  8
42  44  8
43  44  8
46  48  8
48  49  8
49  51  8
50  51  8
15  8  5

> <chiral flag>
1

> <version>
0

> <s_m_Source_Path>
E:\Projects\DeepLearning\Drug\CORONA\Ligand2D

> <s_m_Source_File>
Atazanavir2D_AIDS_148192.sdf

> <i_m_Source_File_Index>
1

> <PUBCHEM_CACTVS_TPSA>
171

> <chiral flag>
1

> <s_m_source_file>
ligprep_10.maegz

> <i_m_source_file_index>
12

> <i_lp_mmshare_version>
44012

> <i_f3d_flags>
0

> <s_epik_input>
W2NIXTFbY0hdW2NIXVtjSF1bY0hdYzFbQ0gyXVtDQEhdKFtOSF1DKD1PKVtDQEhdKEMoW0NIM10pKFtDSDNdKVtDSDNdKVtOSF1DKD1PKU9bQ0gzXSlbQ0BASF0oW09IXSlbQ0gyXU4oW05IXUMoPU8pW0NASF0oQyhbQ0gzXSkoW0NIM10pW0NIM10pW05IXUMoPU8pT1tDSDNdKVtDSDJdYzJbY0hdW2NIXWMoW2NIXVtjSF0yKS1jM25bY0hdW2NIXVtjSF1bY0hdMw==

> <s_epik_cmdline>
J2VwaWtfcHl0aG9uJywgJy1waCcsICc3LjAnLCAnLXRuJywgJzgnLCAnLW1hJywgJzIwMCcsICctaW1hZScsICc8aW5maWxlLm1hZT4nLCAnLW9tYWUnLCAnPG91dGZpbGUubWFlPic=

> <r_epik_Ionization_Penalty>
  0.0101

> <r_epik_Ionization_Penalty_Charging>
  0.0000

> <r_epik_Ionization_Penalty_Neutral>
  0.0101

> <r_epik_State_Penalty>
  0.0077

> <r_epik_Charging_Adjusted_Penalty>
0.00770561

> <i_epik_Tot_Q>
0

> <i_epik_Tot_abs_Q>
0

> <s_epik_Chemistry_Notes>
This compound has an ester and may undergo hydrolysis at high or low pH.

> <s_lp_Force_Field>
OPLS3e

> <r_lp_Energy>
50.0543

> <b_lp_Chiralities_Consistent>
1

> <s_lp_Variant>
Atazanavir2D_AIDS_148192-1

> <s_m_job_name>
ligprep_10

> <s_m_subgroupid>
ligprep_10-out1

> <s_m_subgroup_title>
ligprep_10-out1

> <b_m_subgroup_collapsed>
0

$$$$
