Chloroquine_Malaria_2719
                    3D
 Structure written by MMmdl.
 50 51  0  0  1  0            999 V2000
   -6.1983   -2.7885   -5.9474 Cl  0  0  0  0  0  0
    2.2950    0.4841   -1.1915 N   0  3  0  0  0  0
   -2.6180    0.5387   -1.1471 N   0  0  0  0  0  0
   -6.5045   -1.0184   -1.1528 N   0  3  0  0  0  0
   -0.4559    1.1622   -0.0914 C   0  0  0  0  0  0
    0.1321   -0.2653   -0.0389 C   0  0  0  0  0  0
   -1.9980    1.2160   -0.0080 C   0  0  1  0  0  0
    1.6744   -0.3063   -0.0102 C   0  0  0  0  0  0
   -2.4882    2.6718    0.1226 C   0  0  0  0  0  0
    2.1068   -0.2323   -2.5528 C   0  0  0  0  0  0
    3.7780    0.8539   -0.9333 C   0  0  0  0  0  0
   -3.9279    0.0155   -1.1501 C   0  0  0  0  0  0
   -4.4366   -0.6480   -2.3178 C   0  0  0  0  0  0
    2.1370    0.7829   -3.7070 C   0  0  0  0  0  0
    3.8913    2.0117    0.0717 C   0  0  0  0  0  0
   -4.7664    0.1190   -0.0283 C   0  0  0  0  0  0
   -5.7661   -1.1743   -2.3012 C   0  0  0  0  0  0
   -3.6885   -0.8228   -3.5191 C   0  0  0  0  0  0
   -6.0542   -0.4039   -0.0494 C   0  0  0  0  0  0
   -6.3144   -1.8360   -3.4216 C   0  0  0  0  0  0
   -4.2429   -1.4791   -4.6175 C   0  0  0  0  0  0
   -5.5415   -1.9807   -4.5707 C   0  0  0  0  0  0
   -0.0343    1.7432    0.7306 H   0  0  0  0  0  0
   -0.1304    1.6648   -1.0037 H   0  0  0  0  0  0
   -0.2321   -0.7609    0.8620 H   0  0  0  0  0  0
   -0.2510   -0.8650   -0.8637 H   0  0  0  0  0  0
   -2.2812    0.6810    0.8994 H   0  0  0  0  0  0
    2.0798   -1.3181   -0.0659 H   0  0  0  0  0  0
    2.0341    0.1627    0.9042 H   0  0  0  0  0  0
   -2.0584    0.4277   -1.9801 H   0  0  0  0  0  0
   -2.0619    3.1539    1.0031 H   0  0  0  0  0  0
   -3.5723    2.7300    0.2205 H   0  0  0  0  0  0
   -2.2084    3.2666   -0.7480 H   0  0  0  0  0  0
    2.8832   -0.9964   -2.6184 H   0  0  0  0  0  0
    1.1365   -0.7242   -2.5290 H   0  0  0  0  0  0
    4.2782   -0.0592   -0.6057 H   0  0  0  0  0  0
    4.1989    1.1587   -1.8903 H   0  0  0  0  0  0
    1.9255    0.2876   -4.6549 H   0  0  0  0  0  0
    3.1046    1.2721   -3.8112 H   0  0  0  0  0  0
    1.3828    1.5587   -3.5698 H   0  0  0  0  0  0
    4.9299    2.3294    0.1674 H   0  0  0  0  0  0
    3.5514    1.7374    1.0696 H   0  0  0  0  0  0
    3.3145    2.8779   -0.2548 H   0  0  0  0  0  0
   -4.4384    0.6073    0.8764 H   0  0  0  0  0  0
   -2.6791   -0.4446   -3.5873 H   0  0  0  0  0  0
   -6.7455   -0.3534    0.7797 H   0  0  0  0  0  0
   -7.3226   -2.2234   -3.3814 H   0  0  0  0  0  0
   -3.6552   -1.5990   -5.5165 H   0  0  0  0  0  0
    1.7857    1.3547   -1.2522 H   0  0  0  0  0  0
   -7.4443   -1.3884   -1.1346 H   0  0  0  0  0  0
  1 22  1  0  0  0
  2  8  1  0  0  0
  2 10  1  0  0  0
  2 11  1  0  0  0
  2 49  1  0  0  0
  3  7  1  0  0  0
  3 12  1  0  0  0
  3 30  1  0  0  0
  4 17  2  0  0  0
  4 19  1  0  0  0
  4 50  1  0  0  0
  5  6  1  0  0  0
  5  7  1  0  0  0
  5 23  1  0  0  0
  5 24  1  0  0  0
  6  8  1  0  0  0
  6 25  1  0  0  0
  6 26  1  0  0  0
  7  9  1  0  0  0
  7 27  1  0  0  0
  8 28  1  0  0  0
  8 29  1  0  0  0
  9 31  1  0  0  0
  9 32  1  0  0  0
  9 33  1  0  0  0
 10 14  1  0  0  0
 10 34  1  0  0  0
 10 35  1  0  0  0
 11 15  1  0  0  0
 11 36  1  0  0  0
 11 37  1  0  0  0
 12 13  2  0  0  0
 12 16  1  0  0  0
 13 17  1  0  0  0
 13 18  1  0  0  0
 14 38  1  0  0  0
 14 39  1  0  0  0
 14 40  1  0  0  0
 15 41  1  0  0  0
 15 42  1  0  0  0
 15 43  1  0  0  0
 16 19  2  0  0  0
 16 44  1  0  0  0
 17 20  1  0  0  0
 18 21  2  0  0  0
 18 45  1  0  0  0
 19 46  1  0  0  0
 20 22  2  0  0  0
 20 47  1  0  0  0
 21 22  1  0  0  0
 21 48  1  0  0  0
M  CHG  2   2   1   4   1
M  END
> <s_m_entry_id>
31

> <s_m_entry_name>
Chloroquine2D_Malaria_2719.1

> <PUBCHEM_COMPOUND_CID>
2719

> <PUBCHEM_COMPOUND_CANONICALIZED>
1

> <PUBCHEM_CACTVS_COMPLEXITY>
309

> <PUBCHEM_CACTVS_HBOND_ACCEPTOR>
3

> <PUBCHEM_CACTVS_HBOND_DONOR>
1

> <PUBCHEM_CACTVS_ROTATABLE_BOND>
8

> <PUBCHEM_CACTVS_SUBSKEYS>
AAADceB7AAAEAAAAAAAAAAAAAAAAAAAAAAA8QAAAAAAAAACx8AAAHAIQAAAADCrBHiQ+wPPIEACgAzRnRACCgCAxByAI2KA4ZpgIIOLB09GEJAhgkADIyAcQgIAOBAAAAAICAAAIAAAABAQAAAAAAAAAAA==

> <PUBCHEM_IUPAC_OPENEYE_NAME>
N4-(7-chloro-4-quinolyl)-N1,N1-diethyl-pentane-1,4-diamine

> <PUBCHEM_IUPAC_CAS_NAME>
N4-(7-chloro-4-quinolinyl)-N1,N1-diethylpentane-1,4-diamine

> <PUBCHEM_IUPAC_NAME_MARKUP>
4-<I>N</I>-(7-chloroquinolin-4-yl)-1-<I>N</I>,1-<I>N</I>-diethylpentane-1,4-diamine

> <PUBCHEM_IUPAC_NAME>
4-N-(7-chloroquinolin-4-yl)-1-N,1-N-diethylpentane-1,4-diamine

> <PUBCHEM_IUPAC_SYSTEMATIC_NAME>
N4-(7-chloranylquinolin-4-yl)-N1,N1-diethyl-pentane-1,4-diamine

> <PUBCHEM_IUPAC_TRADITIONAL_NAME>
4-[(7-chloro-4-quinolyl)amino]pentyl-diethyl-amine

> <PUBCHEM_IUPAC_INCHI>
InChI=1S/C18H26ClN3/c1-4-22(5-2)12-6-7-14(3)21-17-10-11-20-18-13-15(19)8-9-16(17)18/h8-11,13-14H,4-7,12H2,1-3H3,(H,20,21)

> <PUBCHEM_IUPAC_INCHIKEY>
WHTVZRBIWZFKQO-UHFFFAOYSA-N

> <PUBCHEM_EXACT_MASS>
319.181526

> <PUBCHEM_MOLECULAR_FORMULA>
C18H26ClN3

> <PUBCHEM_MOLECULAR_WEIGHT>
319.9

> <PUBCHEM_OPENEYE_CAN_SMILES>
CCN(CC)CCCC(C)NC1=C2C=CC(=CC2=NC=C1)Cl

> <PUBCHEM_OPENEYE_ISO_SMILES>
CCN(CC)CCCC(C)NC1=C2C=CC(=CC2=NC=C1)Cl

> <PUBCHEM_MONOISOTOPIC_WEIGHT>
319.181526

> <PUBCHEM_TOTAL_CHARGE>
0

> <PUBCHEM_HEAVY_ATOM_COUNT>
22

> <PUBCHEM_ATOM_DEF_STEREO_COUNT>
0

> <PUBCHEM_ATOM_UDEF_STEREO_COUNT>
1

> <PUBCHEM_BOND_DEF_STEREO_COUNT>
0

> <PUBCHEM_BOND_UDEF_STEREO_COUNT>
0

> <PUBCHEM_ISOTOPIC_ATOM_COUNT>
0

> <PUBCHEM_COMPONENT_COUNT>
1

> <PUBCHEM_CACTVS_TAUTO_COUNT>
-1

> <PUBCHEM_COORDINATE_TYPE>
1
5
255

> <PUBCHEM_BONDANNOTATIONS>
12  13  8
12  16  8
13  17  8
13  18  8
16  19  8
17  20  8
18  21  8
20  22  8
21  22  8
4  17  8
4  19  8
7  9  3

> <chiral flag>
1

> <version>
0

> <s_m_Source_Path>
E:\Projects\DeepLearning\Drug\CORONA\Ligand2D

> <s_m_Source_File>
Chloroquine2D_Malaria_2719.sdf

> <i_m_Source_File_Index>
1

> <PUBCHEM_XLOGP3>
4.6

> <PUBCHEM_CACTVS_TPSA>
28.2

> <chiral flag>
1

> <s_m_source_file>
ligprep_10.maegz

> <i_m_source_file_index>
10

> <i_lp_mmshare_version>
44012

> <i_f3d_flags>
0

> <s_epik_input>
W2NIXTFbY0hdYyhDbClbY0hdYyhjMTIpbltjSF1bY0hdYzJbTkhdW0NASF0oW0NIM10pW0NIMl1bQ0gyXVtDSDJdTihbQ0gyXVtDSDNdKVtDSDJdW0NIM10=

> <s_epik_cmdline>
J2VwaWtfcHl0aG9uJywgJy1waCcsICc3LjAnLCAnLXRuJywgJzgnLCAnLW1hJywgJzIwMCcsICctaW1hZScsICc8aW5maWxlLm1hZT4nLCAnLW9tYWUnLCAnPG91dGZpbGUubWFlPic=

> <r_epik_Ionization_Penalty>
  0.0440

> <r_epik_Ionization_Penalty_Charging>
  0.0440

> <r_epik_Ionization_Penalty_Neutral>
  0.0000

> <r_epik_State_Penalty>
  0.0361

> <r_epik_Charging_Adjusted_Penalty>
0.0800698

> <i_epik_Tot_Q>
2

> <i_epik_Tot_abs_Q>
2

> <s_lp_Force_Field>
OPLS3e

> <r_lp_Energy>
43.7365

> <b_lp_Chiralities_Consistent>
1

> <s_lp_Variant>
Chloroquine2D_Malaria_2719-1

> <s_m_job_name>
ligprep_10

> <s_m_subgroupid>
ligprep_10-out1

> <s_m_subgroup_title>
ligprep_10-out1

> <b_m_subgroup_collapsed>
0

$$$$
