Darunavir_AIDS_DB01264
                    3D
 Structure written by MMmdl.
 75 78  0  0  1  0            999 V2000
   -1.1105    1.4286   -1.5779 C   0  0  0  0  0  0
   -1.1948    1.6790   -0.0474 C   0  0  2  0  0  0
   -1.5102    3.0873    0.2288 N   0  0  0  0  0  0
    0.0523    1.1918    0.7483 C   0  0  1  0  0  0
    0.1235   -0.3498    0.8699 C   0  0  0  0  0  0
    1.2396    1.7280    0.1871 O   0  0  0  0  0  0
    1.3758   -0.8394    1.5043 N   0  0  0  0  0  0
    2.2056   -2.1903    0.7050 S   0  0  0  0  0  0
    1.5319   -0.6348    2.9718 C   0  0  0  0  0  0
    2.9280   -0.1369    3.4249 C   0  0  0  0  0  0
    2.9039    0.2163    4.9227 C   0  0  0  0  0  0
    3.4626    1.0468    2.5952 C   0  0  0  0  0  0
    2.7594   -1.5019   -0.8542 C   0  0  0  0  0  0
    1.9505   -1.5989   -1.9891 C   0  0  0  0  0  0
    2.3689   -1.0296   -3.1886 C   0  0  0  0  0  0
    3.5943   -0.3664   -3.2498 C   0  0  0  0  0  0
    4.4038   -0.2690   -2.1182 C   0  0  0  0  0  0
    3.9854   -0.8369   -0.9181 C   0  0  0  0  0  0
    4.0123    0.2061   -4.4499 N   0  0  0  0  0  0
   -2.1389    3.5182    1.3873 C   0  0  0  0  0  0
   -2.5274    2.8038    2.3145 O   0  0  0  0  0  0
   -2.2715    4.8614    1.3365 O   0  0  0  0  0  0
   -2.9518    5.5889    2.3609 C   0  0  1  0  0  0
   -2.6386    7.0797    2.2563 C   0  0  0  0  0  0
   -3.8486    7.7040    2.6752 O   0  0  0  0  0  0
   -4.4685    5.4944    2.2200 C   0  0  1  0  0  0
   -4.8780    6.7828    2.9050 C   0  0  2  0  0  0
   -6.0987    7.1556    2.3362 O   0  0  0  0  0  0
   -6.3547    6.4902    1.1040 C   0  0  0  0  0  0
   -5.0694    5.7209    0.8360 C   0  0  0  0  0  0
   -4.9062    4.6362    2.7325 H   0  0  0  0  0  0
   -4.9901    6.6516    3.9828 H   0  0  0  0  0  0
    3.4076   -2.5384    1.4706 O   0  0  0  0  0  0
    1.1993   -3.2154    0.4035 O   0  0  0  0  0  0
   -2.4238    1.6862   -2.3088 C   0  0  0  0  0  0
   -3.4012    0.6881   -2.3529 C   0  0  0  0  0  0
   -4.6080    0.9255   -3.0056 C   0  0  0  0  0  0
   -4.8336    2.1597   -3.6115 C   0  0  0  0  0  0
   -3.8632    3.1588   -3.5719 C   0  0  0  0  0  0
   -2.6556    2.9217   -2.9204 C   0  0  0  0  0  0
   -0.3273    2.0447   -2.0236 H   0  0  0  0  0  0
   -0.8094    0.4014   -1.7853 H   0  0  0  0  0  0
   -2.0510    1.0979    0.3055 H   0  0  0  0  0  0
   -1.2252    3.7803   -0.4477 H   0  0  0  0  0  0
   -0.0279    1.5872    1.7616 H   0  0  0  0  0  0
   -0.7213   -0.7558    1.4277 H   0  0  0  0  0  0
    0.0473   -0.7809   -0.1265 H   0  0  0  0  0  0
    1.3536    1.3616   -0.6928 H   0  0  0  0  0  0
    0.7861    0.0925    3.2949 H   0  0  0  0  0  0
    1.2504   -1.5604    3.4751 H   0  0  0  0  0  0
    3.6348   -0.9608    3.3398 H   0  0  0  0  0  0
    2.2244    1.0448    5.1275 H   0  0  0  0  0  0
    3.8937    0.5059    5.2777 H   0  0  0  0  0  0
    2.5802   -0.6338    5.5246 H   0  0  0  0  0  0
    2.7902    1.9041    2.6480 H   0  0  0  0  0  0
    3.5795    0.7809    1.5453 H   0  0  0  0  0  0
    4.4408    1.3705    2.9521 H   0  0  0  0  0  0
    0.9978   -2.1058   -1.9452 H   0  0  0  0  0  0
    1.7387   -1.1045   -4.0632 H   0  0  0  0  0  0
    5.3530    0.2456   -2.1618 H   0  0  0  0  0  0
    4.6120   -0.7530   -0.0423 H   0  0  0  0  0  0
    4.8998    0.6860   -4.4887 H   0  0  0  0  0  0
    3.4243    0.1332   -5.2675 H   0  0  0  0  0  0
   -2.6178    5.2132    3.3305 H   0  0  0  0  0  0
   -1.8155    7.3305    2.9257 H   0  0  0  0  0  0
   -2.4029    7.3702    1.2313 H   0  0  0  0  0  0
   -7.1947    5.8040    1.2203 H   0  0  0  0  0  0
   -6.5443    7.1999    0.2978 H   0  0  0  0  0  0
   -4.4087    6.3210    0.2078 H   0  0  0  0  0  0
   -5.2483    4.7831    0.3085 H   0  0  0  0  0  0
   -3.2286   -0.2673   -1.8787 H   0  0  0  0  0  0
   -5.3668    0.1573   -3.0396 H   0  0  0  0  0  0
   -5.7706    2.3440   -4.1160 H   0  0  0  0  0  0
   -4.0476    4.1134   -4.0423 H   0  0  0  0  0  0
   -1.9062    3.6991   -2.8856 H   0  0  0  0  0  0
  1  2  1  0  0  0
  1 35  1  0  0  0
  1 41  1  0  0  0
  1 42  1  0  0  0
  2  4  1  0  0  0
  2  3  1  0  0  0
  2 43  1  0  0  0
  3 20  1  0  0  0
  3 44  1  0  0  0
  4  5  1  0  0  0
  4  6  1  0  0  0
  4 45  1  0  0  0
  5  7  1  0  0  0
  5 46  1  0  0  0
  5 47  1  0  0  0
  6 48  1  0  0  0
  7  8  1  0  0  0
  7  9  1  0  0  0
  8 13  1  0  0  0
  8 33  2  0  0  0
  8 34  2  0  0  0
  9 10  1  0  0  0
  9 49  1  0  0  0
  9 50  1  0  0  0
 10 11  1  0  0  0
 10 12  1  0  0  0
 10 51  1  0  0  0
 11 52  1  0  0  0
 11 53  1  0  0  0
 11 54  1  0  0  0
 12 55  1  0  0  0
 12 56  1  0  0  0
 12 57  1  0  0  0
 13 14  2  0  0  0
 13 18  1  0  0  0
 14 15  1  0  0  0
 14 58  1  0  0  0
 15 16  2  0  0  0
 15 59  1  0  0  0
 16 17  1  0  0  0
 16 19  1  0  0  0
 17 18  2  0  0  0
 17 60  1  0  0  0
 18 61  1  0  0  0
 19 62  1  0  0  0
 19 63  1  0  0  0
 20 21  2  0  0  0
 20 22  1  0  0  0
 22 23  1  0  0  0
 23 24  1  0  0  0
 23 26  1  0  0  0
 23 64  1  0  0  0
 24 25  1  0  0  0
 24 65  1  0  0  0
 24 66  1  0  0  0
 25 27  1  0  0  0
 26 27  1  0  0  0
 26 30  1  0  0  0
 26 31  1  0  0  0
 27 28  1  0  0  0
 27 32  1  0  0  0
 28 29  1  0  0  0
 29 30  1  0  0  0
 29 67  1  0  0  0
 29 68  1  0  0  0
 30 69  1  0  0  0
 30 70  1  0  0  0
 35 36  2  0  0  0
 35 40  1  0  0  0
 36 37  1  0  0  0
 36 71  1  0  0  0
 37 38  2  0  0  0
 37 72  1  0  0  0
 38 39  1  0  0  0
 38 73  1  0  0  0
 39 40  2  0  0  0
 39 74  1  0  0  0
 40 75  1  0  0  0
M  END
> <s_m_entry_id>
30

> <s_m_entry_name>
Darunavir2D_AIDS_DB01264.1

> <chiral flag>
1

> <version>
0

> <s_m_Source_Path>
E:\Projects\DeepLearning\Drug\CORONA\Ligand2D

> <s_m_Source_File>
Darunavir2D_AIDS_DB01264.sdf

> <i_m_Source_File_Index>
1

> <DATABASE_ID>
DB01264

> <DATABASE_NAME>
drugbank

> <SMILES>
[H][C@@]12CCO[C@]1([H])OC[C@@H]2OC(=O)N[C@@H](CC1=CC=CC=C1)[C@H](O)CN(CC(C)C)S(=O)(=O)C1=CC=C(N)C=C1

> <INCHI_IDENTIFIER>
InChI=1S/C27H37N3O7S/c1-18(2)15-30(38(33,34)21-10-8-20(28)9-11-21)16-24(31)23(14-19-6-4-3-5-7-19)29-27(32)37-25-17-36-26-22(25)12-13-35-26/h3-11,18,22-26,31H,12-17,28H2,1-2H3,(H,29,32)/t22-,23-,24+,25-,26+/m0/s1

> <INCHI_KEY>
CJBJHOAVZSMMDJ-HEXNFIEUSA-N

> <FORMULA>
C27H37N3O7S

> <MOLECULAR_WEIGHT>
547.664

> <EXACT_MASS>
547.235221243

> <JCHEM_ACCEPTOR_COUNT>
7

> <JCHEM_ATOM_COUNT>
75

> <JCHEM_AVERAGE_NEUTRAL_MICROSPECIES_CHARGE>
2.40221322108793e-005

> <JCHEM_AVERAGE_POLARIZABILITY>
57.4862513055911

> <JCHEM_BIOAVAILABILITY>
0

> <JCHEM_DONOR_COUNT>
3

> <JCHEM_FORMAL_CHARGE>
0

> <JCHEM_GHOSE_FILTER>
0

> <JCHEM_IUPAC>
(3R,3aS,6aR)-hexahydrofuro[2,3-b]furan-3-yl N-[(2S,3R)-3-hydroxy-4-[N-(2-methylpropyl)4-aminobenzenesulfonamido]-1-phenylbutan-2-yl]carbamate

> <ALOGPS_LOGP>
1.76

> <JCHEM_LOGP>
2.81681760633333

> <ALOGPS_LOGS>
-3.91

> <JCHEM_MDDR_LIKE_RULE>
1

> <JCHEM_NEUTRAL_CHARGE>
0

> <JCHEM_NUMBER_OF_RINGS>
4

> <JCHEM_PHYSIOLOGICAL_CHARGE>
0

> <JCHEM_PKA>
14.2313585226343

> <JCHEM_PKA_STRONGEST_ACIDIC>
13.5882992572331

> <JCHEM_PKA_STRONGEST_BASIC>
2.38630996339843

> <JCHEM_POLAR_SURFACE_AREA>
140.42

> <JCHEM_REFRACTIVITY>
142.3406

> <JCHEM_ROTATABLE_BOND_COUNT>
11

> <JCHEM_RULE_OF_FIVE>
0

> <ALOGPS_SOLUBILITY>
6.68e-02 g/l

> <JCHEM_TRADITIONAL_IUPAC>
1-hydroxy-2,2,6,6-tetramethylpiperidin-4-yl cyclopropanecarboxylate

> <JCHEM_VEBER_RULE>
0

> <DRUGBANK_ID>
DB01264

> <SECONDARY_ACCESSION_NUMBERS>
EXPT00002

> <DRUG_GROUPS>
approved

> <GENERIC_NAME>
Darunavir

> <SYNONYMS>
(3R,3aS,6aR)-hexahydrofuro[2,3-b]furan-3-yl N-((1S,2R)-1-benzyl-2-hydroxy-3-(N1-isobutylsulfanilamido)propyl)carbamate; (3R,3aS,6aR)-tetrahydro-2H-furo[2,3-b]furan-3-yl (2S,3R)-4-(4-amino-N-isobutylphenylsulfonamido)-3-hydroxy-1-phenylbutan-2-ylcarbamate; (3R,3aS,6aR)-tetrahydro-2H-furo[2,3-b]furan-3-yl (2S,3R)-4-(4-amino-N-neopentylphenylsulfonamido)-3-hydroxy-1-phenylbutan-2-ylcarbamate; [(S)-3-[(4-Amino-benzenesulfonyl)-isobutyl-amino]-2-hydroxy-1-((R)-phenylmethyl)-propyl]-carbamic acid (3R,3aS,6aR)-(hexahydro-furo[2,3-b]furan-3-yl) ester; {(1S,2R)-3-[(4-Amino-benzenesulfonyl)-isobutyl-amino]-1-benzyl-2-hydroxy-propyl}-carbamic acid (3R,3aS,6aR)-(hexahydro-furo[2,3-b]furan-3-yl) ester; Darunavir; Darunavirum; N-((1S,2R)-3-(((4-aminophenyl)sulfonyl)(2-methylpropyl)amino)-2-hydroxy-1-benzylpropyl)((1S,2R,5R)-4,6-dioxabicyclo(3.3.0)oct-2-yloxy)carboxamide

> <PRODUCTS>
Apo-darunavir; Auro-darunavir; Darunavir; Mylan-darunavir; Pat-darunavir; Prezcobix; Prezista; Rezolsta; Symtuza

> <SALTS>
Darunavir ethanolate

> <chiral flag>
0

> <s_m_source_file>
ligprep_10.maegz

> <i_m_source_file_index>
9

> <i_lp_mmshare_version>
44012

> <i_f3d_flags>
0

> <s_epik_input>
W0NIMl0xW0NIMl1PW0NAQEhdKFtDQEBIXTEyKU9bQ0gyXVtDQEBIXTJPQyg9TylbTkhdW0NAQEhdKFtDSDJdYzNbY0hdW2NIXVtjSF1bY0hdW2NIXTMpW0NASF0oW09IXSlbQ0gyXU4oW0NIMl1bQ0hdKFtDSDNdKVtDSDNdKVMoPU8pKD1PKWM0W2NIXVtjSF1jKFtOSDJdKVtjSF1bY0hdNA==

> <s_epik_cmdline>
J2VwaWtfcHl0aG9uJywgJy1waCcsICc3LjAnLCAnLXRuJywgJzgnLCAnLW1hJywgJzIwMCcsICctaW1hZScsICc8aW5maWxlLm1hZT4nLCAnLW9tYWUnLCAnPG91dGZpbGUubWFlPic=

> <r_epik_Ionization_Penalty>
  0.0000

> <r_epik_Ionization_Penalty_Charging>
  0.0000

> <r_epik_Ionization_Penalty_Neutral>
  0.0000

> <r_epik_State_Penalty>
  0.0000

> <r_epik_Charging_Adjusted_Penalty>
0

> <i_epik_Tot_Q>
0

> <i_epik_Tot_abs_Q>
0

> <s_epik_Chemistry_Notes>
This compound has an ester and may undergo hydrolysis at high or low pH. This compound contains an acetal/aminal-like group ( X-CH(R)-Y where X, Y are N, S, or O) that may be acid/base labile, releasing an aldehyde.

> <s_lp_Force_Field>
OPLS3e

> <r_lp_Energy>
10.0842

> <b_lp_Chiralities_Consistent>
1

> <s_lp_Variant>
Darunavir2D_AIDS_DB01264-1

> <s_m_job_name>
ligprep_10

> <r_lp_tautomer_probability>
1

> <s_m_subgroupid>
ligprep_10-out1

> <s_m_subgroup_title>
ligprep_10-out1

> <b_m_subgroup_collapsed>
0

$$$$
