Lopinavir_AIDS_92727
                    3D
 Structure written by MMmdl.
 94 97  0  0  1  0            999 V2000
    1.7934    0.2036   -1.4080 O   0  0  0  0  0  0
   -2.6259    3.1211   -1.0686 O   0  0  0  0  0  0
   -5.1613    1.5525    2.2371 O   0  0  0  0  0  0
    1.8645   -4.6926   -0.0513 O   0  0  0  0  0  0
   -0.6144   -3.9312   -2.4499 O   0  0  0  0  0  0
   -5.2031    2.7954    0.2858 N   0  0  0  0  0  0
   -2.1614    1.1166   -0.0953 N   0  0  0  0  0  0
    1.2904   -2.6919   -0.9497 N   0  0  0  0  0  0
   -6.0344    3.5896    2.3175 N   0  0  0  0  0  0
   -0.6997    1.2094   -0.0873 C   0  0  2  0  0  0
   -4.5010    1.7222   -0.4694 C   0  0  1  0  0  0
   -0.1010   -0.2140    0.0475 C   0  0  0  0  0  0
    1.4336   -0.3316   -0.1442 C   0  0  1  0  0  0
   -5.0516    1.4790   -1.9158 C   0  0  0  0  0  0
    1.9638   -1.7904   -0.0037 C   0  0  2  0  0  0
   -0.1650    2.2231    0.9653 C   0  0  0  0  0  0
   -2.9952    2.0572   -0.5676 C   0  0  0  0  0  0
   -5.6650    4.0297   -0.3981 C   0  0  0  0  0  0
   -5.5059    5.2175    0.5552 C   0  0  0  0  0  0
    3.5132   -1.8850   -0.0996 C   0  0  0  0  0  0
   -5.4654    2.5742    1.6198 C   0  0  0  0  0  0
   -6.5187    1.0138   -1.8677 C   0  0  0  0  0  0
   -4.2322    0.4596   -2.7410 C   0  0  0  0  0  0
   -6.2768    4.9637    1.8541 C   0  0  0  0  0  0
   -0.5501    1.9088    2.4088 C   0  0  0  0  0  0
    4.2410   -1.1293    1.0050 C   0  0  0  0  0  0
    1.2627   -4.0364   -0.9015 C   0  0  0  0  0  0
   -1.7656    2.3717    2.9218 C   0  0  0  0  0  0
    0.3107    1.1617    3.2183 C   0  0  0  0  0  0
    4.8185    0.1157    0.7395 C   0  0  0  0  0  0
    4.3189   -1.6793    2.2873 C   0  0  0  0  0  0
    0.4488   -4.7685   -1.9788 C   0  0  0  0  0  0
   -2.1259    2.0771    4.2333 C   0  0  0  0  0  0
   -0.0486    0.8695    4.5314 C   0  0  0  0  0  0
   -1.2658    1.3269    5.0322 C   0  0  0  0  0  0
    5.4690    0.8105    1.7558 C   0  0  0  0  0  0
    4.9702   -0.9844    3.3030 C   0  0  0  0  0  0
    5.5417    0.2574    3.0326 C   0  0  0  0  0  0
   -0.8636   -3.9374   -3.8074 C   0  0  0  0  0  0
   -0.7669   -2.7232   -4.5082 C   0  0  0  0  0  0
   -1.2514   -5.1052   -4.4967 C   0  0  0  0  0  0
   -1.0163   -2.6867   -5.8827 C   0  0  0  0  0  0
   -1.4942   -5.0488   -5.8725 C   0  0  0  0  0  0
   -0.3989   -1.4360   -3.7874 C   0  0  0  0  0  0
   -1.4727   -6.4272   -3.7760 C   0  0  0  0  0  0
   -1.3714   -3.8471   -6.5642 C   0  0  0  0  0  0
   -0.4060    1.5784   -1.0728 H   0  0  0  0  0  0
   -4.5868    0.7700    0.0580 H   0  0  0  0  0  0
   -0.3768   -0.6327    1.0166 H   0  0  0  0  0  0
   -0.5917   -0.8546   -0.6859 H   0  0  0  0  0  0
    1.9199    0.2824    0.6126 H   0  0  0  0  0  0
   -5.0268    2.4121   -2.4784 H   0  0  0  0  0  0
    1.6718   -2.1218    0.9960 H   0  0  0  0  0  0
   -2.5561    0.2675    0.2830 H   0  0  0  0  0  0
    0.9193    2.3131    0.8952 H   0  0  0  0  0  0
   -0.5320    3.2240    0.7320 H   0  0  0  0  0  0
   -5.0830    4.2156   -1.3001 H   0  0  0  0  0  0
   -6.7083    3.8992   -0.6867 H   0  0  0  0  0  0
   -4.4476    5.3825    0.7671 H   0  0  0  0  0  0
   -5.8554    6.1376    0.0864 H   0  0  0  0  0  0
    3.8373   -2.9252   -0.0486 H   0  0  0  0  0  0
    3.8574   -1.5427   -1.0769 H   0  0  0  0  0  0
   -6.6162    0.0791   -1.3145 H   0  0  0  0  0  0
   -6.9147    0.8490   -2.8701 H   0  0  0  0  0  0
   -7.1631    1.7486   -1.3864 H   0  0  0  0  0  0
   -4.1180   -0.4824   -2.2032 H   0  0  0  0  0  0
   -3.2356    0.8277   -2.9856 H   0  0  0  0  0  0
   -4.7211    0.2384   -3.6902 H   0  0  0  0  0  0
   -7.3513    5.0815    1.7081 H   0  0  0  0  0  0
   -5.9592    5.6635    2.6278 H   0  0  0  0  0  0
    0.7469   -2.2420   -1.6716 H   0  0  0  0  0  0
   -6.3853    3.3526    3.2341 H   0  0  0  0  0  0
    1.3887   -0.3324   -2.0937 H   0  0  0  0  0  0
   -2.4346    2.9533    2.3041 H   0  0  0  0  0  0
    1.2545    0.8037    2.8338 H   0  0  0  0  0  0
    4.7579    0.5483   -0.2488 H   0  0  0  0  0  0
    3.8726   -2.6407    2.4971 H   0  0  0  0  0  0
    0.0209   -5.6686   -1.5363 H   0  0  0  0  0  0
    1.1318   -5.0760   -2.7741 H   0  0  0  0  0  0
   -3.0685    2.4277    4.6276 H   0  0  0  0  0  0
    0.6126    0.2895    5.1581 H   0  0  0  0  0  0
   -1.5453    1.0984    6.0501 H   0  0  0  0  0  0
    5.9141    1.7740    1.5555 H   0  0  0  0  0  0
    5.0312   -1.4054    4.2956 H   0  0  0  0  0  0
    6.0462    0.7966    3.8210 H   0  0  0  0  0  0
   -0.9390   -1.7573   -6.4284 H   0  0  0  0  0  0
   -1.7914   -5.9373   -6.4110 H   0  0  0  0  0  0
   -0.4866   -0.5602   -4.4313 H   0  0  0  0  0  0
    0.6226   -1.4933   -3.4135 H   0  0  0  0  0  0
   -1.0599   -1.2837   -2.9342 H   0  0  0  0  0  0
   -2.1549   -7.0750   -4.3281 H   0  0  0  0  0  0
   -1.9315   -6.2621   -2.8006 H   0  0  0  0  0  0
   -0.5284   -6.9531   -3.6338 H   0  0  0  0  0  0
   -1.5643   -3.8125   -7.6264 H   0  0  0  0  0  0
  1 13  1  0  0  0
  1 73  1  0  0  0
  2 17  2  0  0  0
  3 21  2  0  0  0
  4 27  2  0  0  0
  5 32  1  0  0  0
  5 39  1  0  0  0
  6 11  1  0  0  0
  6 18  1  0  0  0
  6 21  1  0  0  0
  7 10  1  0  0  0
  7 17  1  0  0  0
  7 54  1  0  0  0
  8 15  1  0  0  0
  8 27  1  0  0  0
  8 71  1  0  0  0
  9 21  1  0  0  0
  9 24  1  0  0  0
  9 72  1  0  0  0
 10 12  1  0  0  0
 10 16  1  0  0  0
 10 47  1  0  0  0
 11 14  1  0  0  0
 11 17  1  0  0  0
 11 48  1  0  0  0
 12 13  1  0  0  0
 12 49  1  0  0  0
 12 50  1  0  0  0
 13 15  1  0  0  0
 13 51  1  0  0  0
 14 22  1  0  0  0
 14 23  1  0  0  0
 14 52  1  0  0  0
 15 20  1  0  0  0
 15 53  1  0  0  0
 16 25  1  0  0  0
 16 55  1  0  0  0
 16 56  1  0  0  0
 18 19  1  0  0  0
 18 57  1  0  0  0
 18 58  1  0  0  0
 19 24  1  0  0  0
 19 59  1  0  0  0
 19 60  1  0  0  0
 20 26  1  0  0  0
 20 61  1  0  0  0
 20 62  1  0  0  0
 22 63  1  0  0  0
 22 64  1  0  0  0
 22 65  1  0  0  0
 23 66  1  0  0  0
 23 67  1  0  0  0
 23 68  1  0  0  0
 24 69  1  0  0  0
 24 70  1  0  0  0
 25 28  2  0  0  0
 25 29  1  0  0  0
 26 30  2  0  0  0
 26 31  1  0  0  0
 27 32  1  0  0  0
 28 33  1  0  0  0
 28 74  1  0  0  0
 29 34  2  0  0  0
 29 75  1  0  0  0
 30 36  1  0  0  0
 30 76  1  0  0  0
 31 37  2  0  0  0
 31 77  1  0  0  0
 32 78  1  0  0  0
 32 79  1  0  0  0
 33 35  2  0  0  0
 33 80  1  0  0  0
 34 35  1  0  0  0
 34 81  1  0  0  0
 35 82  1  0  0  0
 36 38  2  0  0  0
 36 83  1  0  0  0
 37 38  1  0  0  0
 37 84  1  0  0  0
 38 85  1  0  0  0
 39 40  2  0  0  0
 39 41  1  0  0  0
 40 42  1  0  0  0
 40 44  1  0  0  0
 41 43  2  0  0  0
 41 45  1  0  0  0
 42 46  2  0  0  0
 42 86  1  0  0  0
 43 46  1  0  0  0
 43 87  1  0  0  0
 44 88  1  0  0  0
 44 89  1  0  0  0
 44 90  1  0  0  0
 45 91  1  0  0  0
 45 92  1  0  0  0
 45 93  1  0  0  0
 46 94  1  0  0  0
M  END
> <s_m_entry_id>
27

> <s_m_entry_name>
Lopinavir2D_AIDS_92727.1

> <PUBCHEM_COMPOUND_CID>
92727

> <PUBCHEM_COMPOUND_CANONICALIZED>
1

> <PUBCHEM_CACTVS_COMPLEXITY>
940

> <PUBCHEM_CACTVS_HBOND_ACCEPTOR>
5

> <PUBCHEM_CACTVS_HBOND_DONOR>
4

> <PUBCHEM_CACTVS_ROTATABLE_BOND>
15

> <PUBCHEM_CACTVS_SUBSKEYS>
AAADcfB/uAAAAAAAAAAAAAAAAAAAAAAAAAA8YMEAAAAAAAABUAAAHgAQCAAADTzhmAYzBoPABgCIAiFSEAICCAAgIAAIiIHMCIiOdjKE8T+XeCCu1hOYqAeQwPAOAAACAAAIAAAAAAQAABAAAAAAAAAAAA==

> <PUBCHEM_IUPAC_OPENEYE_NAME>
(2S)-N-[(1S,3S,4S)-1-benzyl-4-[[2-(2,6-dimethylphenoxy)acetyl]amino]-3-hydroxy-5-phenyl-pentyl]-3-methyl-2-(2-oxohexahydropyrimidin-1-yl)butanamide

> <PUBCHEM_IUPAC_CAS_NAME>
(2S)-N-[(2S,4S,5S)-5-[[2-(2,6-dimethylphenoxy)-1-oxoethyl]amino]-4-hydroxy-1,6-diphenylhexan-2-yl]-3-methyl-2-(2-oxo-1,3-diazinan-1-yl)butanamide

> <PUBCHEM_IUPAC_NAME_MARKUP>
(2<I>S</I>)-<I>N</I>-[(2<I>S</I>,4<I>S</I>,5<I>S</I>)-5-[[2-(2,6-dimethylphenoxy)acetyl]amino]-4-hydroxy-1,6-diphenylhexan-2-yl]-3-methyl-2-(2-oxo-1,3-diazinan-1-yl)butanamide

> <PUBCHEM_IUPAC_NAME>
(2S)-N-[(2S,4S,5S)-5-[[2-(2,6-dimethylphenoxy)acetyl]amino]-4-hydroxy-1,6-diphenylhexan-2-yl]-3-methyl-2-(2-oxo-1,3-diazinan-1-yl)butanamide

> <PUBCHEM_IUPAC_SYSTEMATIC_NAME>
(2S)-N-[(2S,4S,5S)-5-[2-(2,6-dimethylphenoxy)ethanoylamino]-4-oxidanyl-1,6-diphenyl-hexan-2-yl]-3-methyl-2-(2-oxidanylidene-1,3-diazinan-1-yl)butanamide

> <PUBCHEM_IUPAC_TRADITIONAL_NAME>
(2S)-N-[(1S,3S,4S)-1-benzyl-4-[[2-(2,6-dimethylphenoxy)acetyl]amino]-3-hydroxy-5-phenyl-pentyl]-2-(2-ketohexahydropyrimidin-1-yl)-3-methyl-butyramide

> <PUBCHEM_IUPAC_INCHI>
InChI=1S/C37H48N4O5/c1-25(2)34(41-20-12-19-38-37(41)45)36(44)39-30(21-28-15-7-5-8-16-28)23-32(42)31(22-29-17-9-6-10-18-29)40-33(43)24-46-35-26(3)13-11-14-27(35)4/h5-11,13-18,25,30-32,34,42H,12,19-24H2,1-4H3,(H,38,45)(H,39,44)(H,40,43)/t30-,31-,32-,34-/m0/s1

> <PUBCHEM_IUPAC_INCHIKEY>
KJHKTHWMRKYKJE-SUGCFTRWSA-N

> <PUBCHEM_XLOGP3_AA>
5.9

> <PUBCHEM_EXACT_MASS>
628.362471

> <PUBCHEM_MOLECULAR_FORMULA>
C37H48N4O5

> <PUBCHEM_MOLECULAR_WEIGHT>
628.8

> <PUBCHEM_OPENEYE_CAN_SMILES>
CC1=C(C(=CC=C1)C)OCC(=O)NC(CC2=CC=CC=C2)C(CC(CC3=CC=CC=C3)NC(=O)C(C(C)C)N4CCCNC4=O)O

> <PUBCHEM_OPENEYE_ISO_SMILES>
CC1=C(C(=CC=C1)C)OCC(=O)N[C@@H](CC2=CC=CC=C2)[C@H](C[C@H](CC3=CC=CC=C3)NC(=O)[C@H](C(C)C)N4CCCNC4=O)O

> <PUBCHEM_MONOISOTOPIC_WEIGHT>
628.362471

> <PUBCHEM_TOTAL_CHARGE>
0

> <PUBCHEM_HEAVY_ATOM_COUNT>
46

> <PUBCHEM_ATOM_DEF_STEREO_COUNT>
4

> <PUBCHEM_ATOM_UDEF_STEREO_COUNT>
0

> <PUBCHEM_BOND_DEF_STEREO_COUNT>
0

> <PUBCHEM_BOND_UDEF_STEREO_COUNT>
0

> <PUBCHEM_ISOTOPIC_ATOM_COUNT>
0

> <PUBCHEM_COMPONENT_COUNT>
1

> <PUBCHEM_CACTVS_TAUTO_COUNT>
-1

> <PUBCHEM_COORDINATE_TYPE>
1
5
255

> <PUBCHEM_BONDANNOTATIONS>
13  1  6
11  17  5
25  28  8
25  29  8
26  30  8
26  31  8
28  33  8
29  34  8
30  36  8
31  37  8
33  35  8
34  35  8
36  38  8
37  38  8
39  40  8
39  41  8
40  42  8
41  43  8
42  46  8
43  46  8
10  7  6
15  8  5

> <chiral flag>
1

> <version>
0

> <s_m_Source_Path>
E:\Projects\DeepLearning\Drug\CORONA\Ligand2D

> <s_m_Source_File>
Lopinavir2D_AIDS_92727.sdf

> <i_m_Source_File_Index>
1

> <PUBCHEM_CACTVS_TPSA>
120

> <chiral flag>
1

> <s_m_source_file>
ligprep_10.maegz

> <i_m_source_file_index>
7

> <i_lp_mmshare_version>
44012

> <i_f3d_flags>
0

> <s_epik_input>
W0NIM11jMVtjSF1bY0hdW2NIXWMoW0NIM10pYzFPW0NIMl1DKD1PKVtOSF1bQ0BASF0oW0NIMl1jMltjSF1bY0hdW2NIXVtjSF1bY0hdMilbQ0BASF0oW09IXSlbQ0gyXVtDQEhdKFtDSDJdYzNbY0hdW2NIXVtjSF1bY0hdW2NIXTMpW05IXUMoPU8pW0NASF0oW0NIXShbQ0gzXSlbQ0gzXSlONFtDSDJdW0NIMl1bQ0gyXVtOSF1DND1P

> <s_epik_cmdline>
J2VwaWtfcHl0aG9uJywgJy1waCcsICc3LjAnLCAnLXRuJywgJzgnLCAnLW1hJywgJzIwMCcsICctaW1hZScsICc8aW5maWxlLm1hZT4nLCAnLW9tYWUnLCAnPG91dGZpbGUubWFlPic=

> <r_epik_Ionization_Penalty>
  0.0001

> <r_epik_Ionization_Penalty_Charging>
  0.0000

> <r_epik_Ionization_Penalty_Neutral>
  0.0001

> <r_epik_State_Penalty>
  0.0000

> <r_epik_Charging_Adjusted_Penalty>
0

> <i_epik_Tot_Q>
0

> <i_epik_Tot_abs_Q>
0

> <s_lp_Force_Field>
OPLS3e

> <r_lp_Energy>
56.9079

> <b_lp_Chiralities_Consistent>
1

> <s_lp_Variant>
Lopinavir2D_AIDS_92727-1

> <s_m_job_name>
ligprep_10

> <r_lp_tautomer_probability>
1

> <s_m_subgroupid>
ligprep_10-out1

> <s_m_subgroup_title>
ligprep_10-out1

> <b_m_subgroup_collapsed>
0

$$$$
