Remdesivir_Ebola_121304016
                    3D
 Structure written by MMmdl.
 77 80  0  0  1  0            999 V2000
   -0.8357    0.5862    1.5626 P   0  0  1  0  0  0
   -2.9454   -1.9183    2.6915 O   0  0  0  0  0  0
   -5.4202   -2.8770    4.9673 O   0  0  0  0  0  0
   -5.8611   -1.9654    2.3647 O   0  0  0  0  0  0
   -1.6549    0.4915    2.9679 O   0  0  0  0  0  0
   -1.1656   -0.8409    0.8416 O   0  0  0  0  0  0
   -1.1543    1.7897    0.7458 O   0  0  0  0  0  0
    3.4375    0.0833    1.2604 O   0  0  0  0  0  0
    3.2160    2.1987    0.3878 O   0  0  0  0  0  0
   -0.6189   -2.2152    4.4396 N   0  0  0  0  0  0
   -0.2324   -2.8287    3.2984 N   0  0  0  0  0  0
    0.7706    0.4008    2.0840 N   0  0  0  0  0  0
   -3.0996   -5.0912    3.7578 N   0  0  0  0  0  0
    2.0572   -2.3657    3.9481 N   0  0  0  0  0  0
    2.6000   -1.2619    5.9446 N   0  0  0  0  0  0
   -3.1214   -2.4676    4.0000 C   0  0  2  0  0  0
   -4.5091   -1.9176    4.4517 C   0  0  1  0  0  0
   -5.0366   -1.1805    3.2126 C   0  0  1  0  0  0
   -3.7564   -0.7648    2.4828 C   0  0  1  0  0  0
   -1.9291   -2.0196    4.8582 C   0  0  0  0  0  0
   -3.0725    0.5168    3.0298 C   0  0  0  0  0  0
   -3.1090   -3.9386    3.8647 C   0  0  0  0  0  0
   -1.8572   -1.3665    6.0913 C   0  0  0  0  0  0
    0.2577   -1.6567    5.4013 C   0  0  0  0  0  0
   -0.5392   -1.1272    6.4439 C   0  0  0  0  0  0
    1.6270   -1.7683    5.0863 C   0  0  0  0  0  0
    1.7351    1.4975    2.1557 C   0  0  2  0  0  0
    1.1094   -2.8668    3.1232 C   0  0  0  0  0  0
    4.8395   -1.7924    0.5888 C   0  0  0  0  0  0
    4.5320   -0.2852    0.4306 C   0  0  0  0  0  0
    6.1565   -2.1856   -0.1284 C   0  0  0  0  0  0
    3.6422   -2.6567    0.1138 C   0  0  0  0  0  0
    2.8677    1.3096    1.1669 C   0  0  0  0  0  0
    2.2925    1.6828    3.5796 C   0  0  0  0  0  0
   -0.4602   -1.4289   -0.1796 C   0  0  0  0  0  0
    7.4183   -1.4968    0.4180 C   0  0  0  0  0  0
    3.7097   -4.1374    0.5211 C   0  0  0  0  0  0
    0.2685   -0.6854   -1.1163 C   0  0  0  0  0  0
   -0.5021   -2.8198   -0.2768 C   0  0  0  0  0  0
    0.9576   -1.3356   -2.1364 C   0  0  0  0  0  0
    0.1868   -3.4710   -1.2962 C   0  0  0  0  0  0
    0.9125   -2.7255   -2.2227 C   0  0  0  0  0  0
   -4.3763   -1.1619    5.2246 H   0  0  0  0  0  0
   -5.6142   -0.3040    3.5107 H   0  0  0  0  0  0
   -3.8930   -0.6457    1.4066 H   0  0  0  0  0  0
   -3.3079    0.6416    4.0866 H   0  0  0  0  0  0
   -3.4630    1.4052    2.5320 H   0  0  0  0  0  0
   -5.5201   -3.5819    4.3229 H   0  0  0  0  0  0
   -2.7052   -1.0742    6.6926 H   0  0  0  0  0  0
   -5.3356   -2.6904    2.0176 H   0  0  0  0  0  0
   -0.2123   -0.6295    7.3449 H   0  0  0  0  0  0
    1.0700   -0.4835    2.4956 H   0  0  0  0  0  0
    1.2070    2.4136    1.8873 H   0  0  0  0  0  0
    4.9826   -1.9815    1.6548 H   0  0  0  0  0  0
    1.4577   -3.3492    2.2227 H   0  0  0  0  0  0
    4.3142   -0.0574   -0.6146 H   0  0  0  0  0  0
    5.3910    0.3178    0.7253 H   0  0  0  0  0  0
    6.3137   -3.2608   -0.0471 H   0  0  0  0  0  0
    6.0697   -1.9801   -1.1962 H   0  0  0  0  0  0
    2.7117   -2.2500    0.5107 H   0  0  0  0  0  0
    3.5497   -2.5858   -0.9706 H   0  0  0  0  0  0
    2.3217   -0.8153    6.8064 H   0  0  0  0  0  0
    3.5741   -1.3588    5.6964 H   0  0  0  0  0  0
    2.9543    2.5479    3.6421 H   0  0  0  0  0  0
    2.8544    0.8103    3.9160 H   0  0  0  0  0  0
    1.4849    1.8448    4.2947 H   0  0  0  0  0  0
    8.3121   -1.8904   -0.0669 H   0  0  0  0  0  0
    7.5271   -1.6618    1.4905 H   0  0  0  0  0  0
    7.4051   -0.4214    0.2412 H   0  0  0  0  0  0
    2.7937   -4.6556    0.2357 H   0  0  0  0  0  0
    3.8253   -4.2457    1.6002 H   0  0  0  0  0  0
    4.5368   -4.6570    0.0387 H   0  0  0  0  0  0
    0.3053    0.3921   -1.0594 H   0  0  0  0  0  0
   -1.0670   -3.3938    0.4435 H   0  0  0  0  0  0
    1.5236   -0.7646   -2.8575 H   0  0  0  0  0  0
    0.1581   -4.5482   -1.3680 H   0  0  0  0  0  0
    1.4476   -3.2299   -3.0139 H   0  0  0  0  0  0
  1  5  1  0  0  0
  1  6  1  0  0  0
  1  7  2  0  0  0
  1 12  1  0  0  0
  2 16  1  0  0  0
  2 19  1  0  0  0
  3 17  1  0  0  0
  3 48  1  0  0  0
  4 18  1  0  0  0
  4 50  1  0  0  0
  5 21  1  0  0  0
  6 35  1  0  0  0
  8 30  1  0  0  0
  8 33  1  0  0  0
  9 33  2  0  0  0
 10 11  1  0  0  0
 10 20  1  0  0  0
 10 24  1  0  0  0
 11 28  2  0  0  0
 12 27  1  0  0  0
 12 52  1  0  0  0
 13 22  3  0  0  0
 14 26  2  0  0  0
 14 28  1  0  0  0
 15 26  1  0  0  0
 15 62  1  0  0  0
 15 63  1  0  0  0
 16 17  1  0  0  0
 16 20  1  0  0  0
 16 22  1  0  0  0
 17 18  1  0  0  0
 17 43  1  0  0  0
 18 19  1  0  0  0
 18 44  1  0  0  0
 19 21  1  0  0  0
 19 45  1  0  0  0
 20 23  2  0  0  0
 21 46  1  0  0  0
 21 47  1  0  0  0
 23 25  1  0  0  0
 23 49  1  0  0  0
 24 25  2  0  0  0
 24 26  1  0  0  0
 25 51  1  0  0  0
 27 33  1  0  0  0
 27 34  1  0  0  0
 27 53  1  0  0  0
 28 55  1  0  0  0
 29 30  1  0  0  0
 29 31  1  0  0  0
 29 32  1  0  0  0
 29 54  1  0  0  0
 30 56  1  0  0  0
 30 57  1  0  0  0
 31 36  1  0  0  0
 31 58  1  0  0  0
 31 59  1  0  0  0
 32 37  1  0  0  0
 32 60  1  0  0  0
 32 61  1  0  0  0
 34 64  1  0  0  0
 34 65  1  0  0  0
 34 66  1  0  0  0
 35 38  2  0  0  0
 35 39  1  0  0  0
 36 67  1  0  0  0
 36 68  1  0  0  0
 36 69  1  0  0  0
 37 70  1  0  0  0
 37 71  1  0  0  0
 37 72  1  0  0  0
 38 40  1  0  0  0
 38 73  1  0  0  0
 39 41  2  0  0  0
 39 74  1  0  0  0
 40 42  2  0  0  0
 40 75  1  0  0  0
 41 42  1  0  0  0
 41 76  1  0  0  0
 42 77  1  0  0  0
M  END
> <s_m_entry_id>
23

> <s_m_entry_name>
Remdesivir2D_Ebola_121304016.1

> <PUBCHEM_COMPOUND_CID>
121304016

> <PUBCHEM_COMPOUND_CANONICALIZED>
1

> <PUBCHEM_CACTVS_COMPLEXITY>
1010

> <PUBCHEM_CACTVS_HBOND_ACCEPTOR>
13

> <PUBCHEM_CACTVS_HBOND_DONOR>
4

> <PUBCHEM_CACTVS_ROTATABLE_BOND>
14

> <PUBCHEM_CACTVS_SUBSKEYS>
AAADcfB7vAIAAAAAAAAAAAAAAAAAAWJAAAA8QAAAAAAAAFgB8AAAHgAYiCAADXzhlgY3/rZIFxC6RSbzbISShC8xsqAd2KG+fJiL/uLAuZuX8Ahn2BPb6C/w8PcOAAAAAAAAAAAAAAAAAAAAAAAAAAAAAA==

> <PUBCHEM_IUPAC_OPENEYE_NAME>
2-ethylbutyl (2S)-2-[[[(2R,3S,4R,5R)-5-(4-aminopyrrolo[2,1-f][1,2,4]triazin-7-yl)-5-cyano-3,4-dihydroxy-tetrahydrofuran-2-yl]methoxy-phenoxy-phosphoryl]amino]propanoate

> <PUBCHEM_IUPAC_CAS_NAME>
(2S)-2-[[[(2R,3S,4R,5R)-5-(4-amino-7-pyrrolo[2,1-f][1,2,4]triazinyl)-5-cyano-3,4-dihydroxy-2-oxolanyl]methoxy-phenoxyphosphoryl]amino]propanoic acid 2-ethylbutyl ester

> <PUBCHEM_IUPAC_NAME_MARKUP>
2-ethylbutyl (2<I>S</I>)-2-[[[(2<I>R</I>,3<I>S</I>,4<I>R</I>,5<I>R</I>)-5-(4-aminopyrrolo[2,1-f][1,2,4]triazin-7-yl)-5-cyano-3,4-dihydroxyoxolan-2-yl]methoxy-phenoxyphosphoryl]amino]propanoate

> <PUBCHEM_IUPAC_NAME>
2-ethylbutyl (2S)-2-[[[(2R,3S,4R,5R)-5-(4-aminopyrrolo[2,1-f][1,2,4]triazin-7-yl)-5-cyano-3,4-dihydroxyoxolan-2-yl]methoxy-phenoxyphosphoryl]amino]propanoate

> <PUBCHEM_IUPAC_SYSTEMATIC_NAME>
2-ethylbutyl (2S)-2-[[[(2R,3S,4R,5R)-5-(4-azanylpyrrolo[2,1-f][1,2,4]triazin-7-yl)-5-cyano-3,4-bis(oxidanyl)oxolan-2-yl]methoxy-phenoxy-phosphoryl]amino]propanoate

> <PUBCHEM_IUPAC_TRADITIONAL_NAME>
(2S)-2-[[[(2R,3S,4R,5R)-5-(4-aminopyrrolo[2,1-f][1,2,4]triazin-7-yl)-5-cyano-3,4-dihydroxy-tetrahydrofuran-2-yl]methoxy-phenoxy-phosphoryl]amino]propionic acid 2-ethylbutyl ester

> <PUBCHEM_IUPAC_INCHI>
InChI=1S/C27H35N6O8P/c1-4-18(5-2)13-38-26(36)17(3)32-42(37,41-19-9-7-6-8-10-19)39-14-21-23(34)24(35)27(15-28,40-21)22-12-11-20-25(29)30-16-31-33(20)22/h6-12,16-18,21,23-24,34-35H,4-5,13-14H2,1-3H3,(H,32,37)(H2,29,30,31)/t17-,21+,23+,24+,27-,42-/m0/s1

> <PUBCHEM_IUPAC_INCHIKEY>
RWWYLEGWBNMMLJ-YSOARWBDSA-N

> <PUBCHEM_XLOGP3_AA>
1.9

> <PUBCHEM_EXACT_MASS>
602.225399

> <PUBCHEM_MOLECULAR_FORMULA>
C27H35N6O8P

> <PUBCHEM_MOLECULAR_WEIGHT>
602.6

> <PUBCHEM_OPENEYE_CAN_SMILES>
CCC(CC)COC(=O)C(C)NP(=O)(OCC1C(C(C(O1)(C#N)C2=CC=C3N2N=CN=C3N)O)O)OC4=CC=CC=C4

> <PUBCHEM_OPENEYE_ISO_SMILES>
CCC(CC)COC(=O)[C@H](C)N[P@](=O)(OC[C@@H]1[C@H]([C@H]([C@](O1)(C#N)C2=CC=C3N2N=CN=C3N)O)O)OC4=CC=CC=C4

> <PUBCHEM_MONOISOTOPIC_WEIGHT>
602.225399

> <PUBCHEM_TOTAL_CHARGE>
0

> <PUBCHEM_HEAVY_ATOM_COUNT>
42

> <PUBCHEM_ATOM_DEF_STEREO_COUNT>
6

> <PUBCHEM_ATOM_UDEF_STEREO_COUNT>
0

> <PUBCHEM_BOND_DEF_STEREO_COUNT>
0

> <PUBCHEM_BOND_UDEF_STEREO_COUNT>
0

> <PUBCHEM_ISOTOPIC_ATOM_COUNT>
0

> <PUBCHEM_COMPONENT_COUNT>
1

> <PUBCHEM_CACTVS_TAUTO_COUNT>
-1

> <PUBCHEM_COORDINATE_TYPE>
1
5
255

> <PUBCHEM_BONDANNOTATIONS>
1  5  6
10  11  8
10  20  8
10  24  8
11  28  8
27  12  6
14  26  8
14  28  8
16  22  6
19  21  5
20  23  8
23  25  8
24  25  8
24  26  8
17  3  6
35  38  8
35  39  8
38  40  8
39  41  8
18  4  6
40  42  8
41  42  8

> <chiral flag>
1

> <version>
0

> <s_m_Source_Path>
E:\Projects\DeepLearning\Drug\CORONA\Ligand2D

> <s_m_Source_File>
Remdesivir2D_Ebola_121304016.sdf

> <i_m_Source_File_Index>
1

> <PUBCHEM_CACTVS_TPSA>
204

> <chiral flag>
1

> <s_m_source_file>
ligprep_10.maegz

> <i_m_source_file_index>
5

> <i_lp_mmshare_version>
44012

> <i_f3d_flags>
0

> <s_epik_input>
W0NIM11bQ0gyXVtDSF0oW0NIMl1bQ0gzXSlbQ0gyXU9DKD1PKVtDQEhdKFtDSDNdKVtOSF1bUEBAXSg9TykoT2MxW2NIXVtjSF1bY0hdW2NIXVtjSF0xKU9bQ0gyXVtDQEhdKFtDQEBIXShbT0hdKVtDQEhdMltPSF0pT1tDQEBdMihDI04pYzNbY0hdW2NIXWMobjM0KWMoW05IMl0pbltjSF1uNA==

> <s_epik_cmdline>
J2VwaWtfcHl0aG9uJywgJy1waCcsICc3LjAnLCAnLXRuJywgJzgnLCAnLW1hJywgJzIwMCcsICctaW1hZScsICc8aW5maWxlLm1hZT4nLCAnLW9tYWUnLCAnPG91dGZpbGUubWFlPic=

> <r_epik_Ionization_Penalty>
  0.0014

> <r_epik_Ionization_Penalty_Charging>
  0.0000

> <r_epik_Ionization_Penalty_Neutral>
  0.0014

> <r_epik_State_Penalty>
  0.0000

> <r_epik_Charging_Adjusted_Penalty>
0

> <i_epik_Tot_Q>
0

> <i_epik_Tot_abs_Q>
0

> <s_epik_Chemistry_Notes>
This compound has an ester and may undergo hydrolysis at high or low pH.

> <s_lp_Force_Field>
OPLS3e

> <r_lp_Energy>
22.241

> <b_lp_Chiralities_Consistent>
1

> <s_lp_Variant>
Remdesivir2D_Ebola_121304016-1

> <s_m_job_name>
ligprep_10

> <r_lp_tautomer_probability>
1

> <s_m_subgroupid>
ligprep_10-out1

> <s_m_subgroup_title>
ligprep_10-out1

> <b_m_subgroup_collapsed>
0

$$$$
