TMC310911_AIDS_DB15623
                    3D
 Structure written by MMmdl.
106112  0  0  1  0            999 V2000
   -3.3087   -1.2239    1.4056 C   0  0  0  0  0  0
   -2.5053   -0.1996    0.5851 C   0  0  0  0  0  0
   -2.2486   -0.7218   -0.8426 C   0  0  0  0  0  0
   -1.2155    0.2047    1.3445 C   0  0  0  0  0  0
   -0.2486    1.0270    0.5623 N   0  0  0  0  0  0
    1.1984    0.7381    0.7506 C   0  0  0  0  0  0
    1.6623   -0.6421    0.2136 C   0  0  1  0  0  0
    1.1427   -0.8415   -1.0916 O   0  0  0  0  0  0
    3.2107   -0.8237    0.1709 C   0  0  2  0  0  0
    3.6318   -2.2754   -0.1763 C   0  0  0  0  0  0
    5.1342   -2.4536   -0.3679 C   0  0  0  0  0  0
    5.7232   -2.1213   -1.5908 C   0  0  0  0  0  0
    7.0962   -2.2742   -1.7649 C   0  0  0  0  0  0
    7.8751   -2.7580   -0.7156 C   0  0  0  0  0  0
    7.2941   -3.0907    0.5063 C   0  0  0  0  0  0
    5.9212   -2.9388    0.6807 C   0  0  0  0  0  0
    3.8811   -0.3610    1.3969 N   0  0  0  0  0  0
    4.4147    0.9112    1.5547 C   0  0  0  0  0  0
    4.4100    1.8158    0.7164 O   0  0  0  0  0  0
    4.9400    1.0107    2.7932 O   0  0  0  0  0  0
    5.5190    2.2292    3.2759 C   0  0  2  0  0  0
    6.4885    2.0010    4.4385 C   0  0  1  0  0  0
    5.5349    1.9516    5.6168 C   0  0  1  0  0  0
    4.4379    2.7475    5.2703 O   0  0  0  0  0  0
    4.4359    3.1145    3.8941 C   0  0  0  0  0  0
    5.2170    0.6048    5.8182 O   0  0  0  0  0  0
    6.1638   -0.2781    5.2237 C   0  0  0  0  0  0
    7.1821    0.6513    4.5664 C   0  0  0  0  0  0
    6.0006    2.3335    6.5271 H   0  0  0  0  0  0
    7.1735    2.8429    4.5541 H   0  0  0  0  0  0
   -0.6596    2.7120    0.1758 S   0  0  0  0  0  0
   -2.1103    2.8220   -0.0127 O   0  0  0  0  0  0
    0.0208    3.5715    1.1522 O   0  0  0  0  0  0
    0.0906    3.0088   -1.4256 C   0  0  0  0  0  0
   -0.6132    2.6647   -2.5832 C   0  0  0  0  0  0
    0.0021    2.8959   -3.8201 C   0  0  0  0  0  0
    1.3035    3.4578   -3.9009 C   0  0  0  0  0  0
    1.9965    3.7898   -2.7281 C   0  0  0  0  0  0
    1.3742    3.5584   -1.5010 C   0  0  0  0  0  0
    1.7808    3.6318   -5.1623 N   0  0  0  0  0  0
    0.9193    3.2435   -6.0579 C   0  0  0  0  0  0
    1.1727    3.3246   -7.4044 N   0  0  0  0  0  0
    0.2394    3.0903   -8.5002 C   0  0  2  0  0  0
    1.0280    2.9048   -9.8057 C   0  0  0  0  0  0
    0.0565    2.5600  -10.9495 C   0  0  0  0  0  0
   -0.9968    3.6945  -11.0807 N   0  3  2  0  0  0
   -1.7424    3.9853   -9.7505 C   0  0  0  0  0  0
   -0.7075    4.2938   -8.6556 C   0  0  0  0  0  0
   -1.9475    3.4455  -12.2870 C   0  0  0  0  0  0
   -2.7769    4.6653  -12.7223 C   0  0  0  0  0  0
   -4.1680    4.5155  -12.0892 C   0  0  0  0  0  0
   -4.3033    3.0448  -11.6699 C   0  0  0  0  0  0
   -3.0114    2.3448  -12.1137 C   0  0  0  0  0  0
   -0.5909    2.5911   -5.4460 S   0  0  0  0  0  0
   -2.7591   -2.1582    1.5282 H   0  0  0  0  0  0
   -4.2583   -1.4598    0.9234 H   0  0  0  0  0  0
   -3.5378   -0.8410    2.4009 H   0  0  0  0  0  0
   -3.1525    0.6732    0.5170 H   0  0  0  0  0  0
   -1.6185   -1.6117   -0.8322 H   0  0  0  0  0  0
   -1.7552    0.0263   -1.4628 H   0  0  0  0  0  0
   -3.1824   -0.9836   -1.3412 H   0  0  0  0  0  0
   -1.4508    0.7480    2.2605 H   0  0  0  0  0  0
   -0.7097   -0.7014    1.6781 H   0  0  0  0  0  0
    1.7740    1.5081    0.2399 H   0  0  0  0  0  0
    1.4265    0.8607    1.8101 H   0  0  0  0  0  0
    1.2596   -1.4153    0.8693 H   0  0  0  0  0  0
    1.4388   -1.6968   -1.4111 H   0  0  0  0  0  0
    3.5843   -0.1997   -0.6461 H   0  0  0  0  0  0
    3.2868   -2.9597    0.6011 H   0  0  0  0  0  0
    3.1344   -2.6121   -1.0871 H   0  0  0  0  0  0
    5.1197   -1.7420   -2.4028 H   0  0  0  0  0  0
    7.5554   -2.0178   -2.7083 H   0  0  0  0  0  0
    8.9402   -2.8759   -0.8505 H   0  0  0  0  0  0
    7.9057   -3.4636    1.3146 H   0  0  0  0  0  0
    5.4726   -3.1933    1.6301 H   0  0  0  0  0  0
    3.9344   -0.9997    2.1769 H   0  0  0  0  0  0
    6.0352    2.7226    2.4500 H   0  0  0  0  0  0
    4.6871    4.1698    3.7824 H   0  0  0  0  0  0
    3.4617    2.9221    3.4421 H   0  0  0  0  0  0
    6.6486   -0.9049    5.9730 H   0  0  0  0  0  0
    5.6749   -0.8950    4.4690 H   0  0  0  0  0  0
    7.5367    0.2721    3.6070 H   0  0  0  0  0  0
    8.0551    0.7510    5.2136 H   0  0  0  0  0  0
   -1.6020    2.2333   -2.5283 H   0  0  0  0  0  0
    2.9886    4.2152   -2.7662 H   0  0  0  0  0  0
    1.9067    3.8095   -0.5949 H   0  0  0  0  0  0
    2.0279    3.7644   -7.7131 H   0  0  0  0  0  0
   -0.3277    2.1829   -8.2834 H   0  0  0  0  0  0
    1.5805    3.8108  -10.0627 H   0  0  0  0  0  0
    1.7613    2.1033   -9.7022 H   0  0  0  0  0  0
    0.6012    2.5271  -11.8941 H   0  0  0  0  0  0
   -0.4757    1.6217  -10.7889 H   0  0  0  0  0  0
   -2.3640    4.8628   -9.9231 H   0  0  0  0  0  0
   -2.3570    3.1181   -9.5089 H   0  0  0  0  0  0
   -1.2292    4.5047   -7.7212 H   0  0  0  0  0  0
   -0.1547    5.1972   -8.9203 H   0  0  0  0  0  0
   -1.2281    3.1812  -13.0640 H   0  0  0  0  0  0
   -2.3042    5.6108  -12.4527 H   0  0  0  0  0  0
   -2.8763    4.6635  -13.8091 H   0  0  0  0  0  0
   -4.2761    5.1710  -11.2242 H   0  0  0  0  0  0
   -4.9491    4.7994  -12.7960 H   0  0  0  0  0  0
   -4.4318    2.9705  -10.5895 H   0  0  0  0  0  0
   -5.1794    2.5775  -12.1222 H   0  0  0  0  0  0
   -3.1825    1.8604  -13.0766 H   0  0  0  0  0  0
   -2.7120    1.5600  -11.4189 H   0  0  0  0  0  0
   -0.4963    4.5483  -11.2837 H   0  0  0  0  0  0
  1  2  1  0  0  0
  1 55  1  0  0  0
  1 56  1  0  0  0
  1 57  1  0  0  0
  2  3  1  0  0  0
  2  4  1  0  0  0
  2 58  1  0  0  0
  3 59  1  0  0  0
  3 60  1  0  0  0
  3 61  1  0  0  0
  4  5  1  0  0  0
  4 62  1  0  0  0
  4 63  1  0  0  0
  5  6  1  0  0  0
  5 31  1  0  0  0
  6  7  1  0  0  0
  6 64  1  0  0  0
  6 65  1  0  0  0
  7  8  1  0  0  0
  7  9  1  0  0  0
  7 66  1  0  0  0
  8 67  1  0  0  0
  9 10  1  0  0  0
  9 17  1  0  0  0
  9 68  1  0  0  0
 10 11  1  0  0  0
 10 69  1  0  0  0
 10 70  1  0  0  0
 11 12  1  0  0  0
 11 16  2  0  0  0
 12 13  2  0  0  0
 12 71  1  0  0  0
 13 14  1  0  0  0
 13 72  1  0  0  0
 14 15  2  0  0  0
 14 73  1  0  0  0
 15 16  1  0  0  0
 15 74  1  0  0  0
 16 75  1  0  0  0
 17 18  1  0  0  0
 17 76  1  0  0  0
 18 19  2  0  0  0
 18 20  1  0  0  0
 20 21  1  0  0  0
 21 22  1  0  0  0
 21 25  1  0  0  0
 21 77  1  0  0  0
 22 23  1  0  0  0
 22 28  1  0  0  0
 22 30  1  0  0  0
 23 24  1  0  0  0
 23 26  1  0  0  0
 23 29  1  0  0  0
 24 25  1  0  0  0
 25 78  1  0  0  0
 25 79  1  0  0  0
 26 27  1  0  0  0
 27 28  1  0  0  0
 27 80  1  0  0  0
 27 81  1  0  0  0
 28 82  1  0  0  0
 28 83  1  0  0  0
 31 32  2  0  0  0
 31 33  2  0  0  0
 31 34  1  0  0  0
 34 35  1  0  0  0
 34 39  2  0  0  0
 35 36  2  0  0  0
 35 84  1  0  0  0
 36 37  1  0  0  0
 36 54  1  0  0  0
 37 38  2  0  0  0
 37 40  1  0  0  0
 38 39  1  0  0  0
 38 85  1  0  0  0
 39 86  1  0  0  0
 40 41  2  0  0  0
 41 42  1  0  0  0
 41 54  1  0  0  0
 42 43  1  0  0  0
 42 87  1  0  0  0
 43 44  1  0  0  0
 43 48  1  0  0  0
 43 88  1  0  0  0
 44 45  1  0  0  0
 44 89  1  0  0  0
 44 90  1  0  0  0
 45 46  1  0  0  0
 45 91  1  0  0  0
 45 92  1  0  0  0
 46 47  1  0  0  0
 46 49  1  0  0  0
 46106  1  0  0  0
 47 48  1  0  0  0
 47 93  1  0  0  0
 47 94  1  0  0  0
 48 95  1  0  0  0
 48 96  1  0  0  0
 49 50  1  0  0  0
 49 53  1  0  0  0
 49 97  1  0  0  0
 50 51  1  0  0  0
 50 98  1  0  0  0
 50 99  1  0  0  0
 51 52  1  0  0  0
 51100  1  0  0  0
 51101  1  0  0  0
 52 53  1  0  0  0
 52102  1  0  0  0
 52103  1  0  0  0
 53104  1  0  0  0
 53105  1  0  0  0
M  CHG  1  46   1
M  END
> <s_m_entry_id>
20

> <s_m_entry_name>
TMC310911_AIDS_DB15623.1

> <chiral flag>
1

> <version>
0

> <s_m_Source_Path>
E:\Projects\DeepLearning\Drug\CORONA\Ligand2D

> <s_m_Source_File>
TMC310911_AIDS_DB15623.sdf

> <i_m_Source_File_Index>
1

> <DATABASE_ID>
DB15623

> <DATABASE_NAME>
drugbank

> <SMILES>
[H][C@@]12CCO[C@]1([H])OC[C@@H]2OC(=O)N[C@@H](CC1=CC=CC=C1)[C@H](O)CN(CC(C)C)S(=O)(=O)C1=CC=C2N=C(NC3CCN(CC3)C3CCCC3)SC2=C1

> <INCHI_IDENTIFIER>
InChI=1S/C38H53N5O7S2/c1-25(2)22-43(23-33(44)32(20-26-8-4-3-5-9-26)41-38(45)50-34-24-49-36-30(34)16-19-48-36)52(46,47)29-12-13-31-35(21-29)51-37(40-31)39-27-14-17-42(18-15-27)28-10-6-7-11-28/h3-5,8-9,12-13,21,25,27-28,30,32-34,36,44H,6-7,10-11,14-20,22-24H2,1-2H3,(H,39,40)(H,41,45)/t30-,32-,33+,34-,36+/m0/s1

> <INCHI_KEY>
JQUNFHFWXCXPRK-AMMMHQJVSA-N

> <FORMULA>
C38H53N5O7S2

> <MOLECULAR_WEIGHT>
755.987

> <EXACT_MASS>
755.338640455

> <JCHEM_ACCEPTOR_COUNT>
9

> <JCHEM_ATOM_COUNT>
105

> <JCHEM_AVERAGE_NEUTRAL_MICROSPECIES_CHARGE>
0.990586133919764

> <JCHEM_AVERAGE_POLARIZABILITY>
80.0896530802447

> <JCHEM_BIOAVAILABILITY>
0

> <JCHEM_DONOR_COUNT>
3

> <JCHEM_FORMAL_CHARGE>
0

> <JCHEM_GHOSE_FILTER>
0

> <JCHEM_IUPAC>
(3R,3aS,6aR)-hexahydrofuro[2,3-b]furan-3-yl N-[(2S,3R)-3-hydroxy-4-[N-(2-methylpropyl)2-[(1-cyclopentylpiperidin-4-yl)amino]-1,3-benzothiazole-6-sulfonamido]-1-phenylbutan-2-yl]carbamate

> <ALOGPS_LOGP>
4.5

> <JCHEM_LOGP>
5.32450563566666

> <ALOGPS_LOGS>
-5.14

> <JCHEM_MDDR_LIKE_RULE>
1

> <JCHEM_NEUTRAL_CHARGE>
1

> <JCHEM_NUMBER_OF_RINGS>
7

> <JCHEM_PHYSIOLOGICAL_CHARGE>
1

> <JCHEM_PKA>
14.1247509986872

> <JCHEM_PKA_STRONGEST_ACIDIC>
13.4638710416192

> <JCHEM_PKA_STRONGEST_BASIC>
9.01960483397572

> <JCHEM_POLAR_SURFACE_AREA>
142.56

> <JCHEM_REFRACTIVITY>
200.2423

> <JCHEM_ROTATABLE_BOND_COUNT>
14

> <JCHEM_RULE_OF_FIVE>
0

> <ALOGPS_SOLUBILITY>
5.44e-03 g/l

> <JCHEM_TRADITIONAL_IUPAC>
6-bromo-4-[(dimethylamino)methyl]-3-(ethoxycarbonyl)-2-[(phenylsulfanyl)methyl]-1H-indol-5-yl sulfate

> <JCHEM_VEBER_RULE>
0

> <DRUGBANK_ID>
DB15623

> <DRUG_GROUPS>
investigational

> <GENERIC_NAME>
TMC-310911

> <chiral flag>
0

> <s_m_source_file>
ligprep_10.maegz

> <i_m_source_file_index>
3

> <i_lp_mmshare_version>
44012

> <i_f3d_flags>
0

> <s_epik_input>
W0NIMl0xW0NIMl1PW0NAQEhdKFtDQEBIXTEyKU9bQ0gyXVtDQEBIXTJPQyg9TylbTkhdW0NAQEhdKFtDSDJdYzNbY0hdW2NIXVtjSF1bY0hdW2NIXTMpW0NASF0oW09IXSlbQ0gyXU4oW0NIMl1bQ0hdKFtDSDNdKVtDSDNdKVMoPU8pKD1PKWMoW2NIXTQpW2NIXVtjSF1jKGM0NSluYyhzNSlbTkhdW0NIXTZbQ0gyXVtDSDJdTihbQ0gyXVtDSDJdNilbQ0hdN1tDSDJdW0NIMl1bQ0gyXVtDSDJdNw==

> <s_epik_cmdline>
J2VwaWtfcHl0aG9uJywgJy1waCcsICc3LjAnLCAnLXRuJywgJzgnLCAnLW1hJywgJzIwMCcsICctaW1hZScsICc8aW5maWxlLm1hZT4nLCAnLW9tYWUnLCAnPG91dGZpbGUubWFlPic=

> <r_epik_Ionization_Penalty>
  0.0007

> <r_epik_Ionization_Penalty_Charging>
  0.0006

> <r_epik_Ionization_Penalty_Neutral>
  0.0001

> <r_epik_State_Penalty>
  0.0004

> <r_epik_Charging_Adjusted_Penalty>
0.00096065

> <i_epik_Tot_Q>
1

> <i_epik_Tot_abs_Q>
1

> <s_epik_Chemistry_Notes>
This compound has an ester and may undergo hydrolysis at high or low pH. This compound contains an acetal/aminal-like group ( X-CH(R)-Y where X, Y are N, S, or O) that may be acid/base labile, releasing an aldehyde.

> <s_lp_Force_Field>
OPLS3e

> <r_lp_Energy>
35.9052

> <b_lp_Chiralities_Consistent>
1

> <s_lp_Variant>
TMC310911_AIDS_DB15623-1

> <s_m_job_name>
ligprep_10

> <s_m_subgroupid>
ligprep_10-out1

> <s_m_subgroup_title>
ligprep_10-out1

> <b_m_subgroup_collapsed>
0

$$$$
