Umifenovir_Influenza_13609
                    3D
 Structure written by MMmdl.
 54 56  0  0  1  0            999 V2000
    3.4035    4.1961    1.2443 C   0  0  0  0  0  0
    2.3178    4.9530    0.4623 C   0  0  0  0  0  0
    1.0917    4.2284    0.4206 O   0  0  0  0  0  0
    0.8978    3.2047   -0.4471 C   0  0  0  0  0  0
    1.7380    2.7712   -1.2349 O   0  0  0  0  0  0
   -0.4201    2.6074   -0.2439 C   0  0  0  0  0  0
   -1.6115    3.3313   -0.2007 C   0  0  0  0  0  0
   -2.6555    2.4469   -0.0075 N   0  0  0  0  0  0
   -2.1695    1.1525    0.0436 C   0  0  0  0  0  0
   -0.7446    1.2023   -0.0675 C   0  0  0  0  0  0
   -0.0117   -0.0153    0.0255 C   0  0  0  0  0  0
   -0.7386   -1.2167    0.1870 C   0  0  0  0  0  0
   -2.1353   -1.2215    0.2558 C   0  0  0  0  0  0
   -2.8696   -0.0463    0.1912 C   0  0  0  0  0  0
   -3.1211   -2.8479    0.4603 Br  0  0  0  0  0  0
   -0.1321   -2.3340    0.2705 O   0  5  0  0  0  0
    1.5241   -0.0612    0.0109 C   0  0  0  0  0  0
    2.1676   -0.0978   -1.3939 N   0  3  0  0  0  0
    1.7515   -1.3216   -2.2331 C   0  0  0  0  0  0
    3.7017    0.0177   -1.3099 C   0  0  0  0  0  0
   -4.0764    2.7850    0.0689 C   0  0  0  0  0  0
   -1.8520    4.8290   -0.3477 C   0  0  0  0  0  0
   -2.0655    5.6606    1.2533 S   0  0  0  0  0  0
   -2.0672    7.3934    0.9143 C   0  0  0  0  0  0
   -3.1101    8.1806    1.4029 C   0  0  0  0  0  0
   -3.1208    9.5491    1.1447 C   0  0  0  0  0  0
   -2.0861   10.1199    0.4056 C   0  0  0  0  0  0
   -1.0393    9.3359   -0.0768 C   0  0  0  0  0  0
   -1.0280    7.9671    0.1787 C   0  0  0  0  0  0
    4.3157    4.7890    1.3103 H   0  0  0  0  0  0
    3.6582    3.2509    0.7639 H   0  0  0  0  0  0
    3.0742    3.9776    2.2605 H   0  0  0  0  0  0
    2.1231    5.9064    0.9538 H   0  0  0  0  0  0
    2.6597    5.1900   -0.5467 H   0  0  0  0  0  0
   -3.9471   -0.0714    0.2638 H   0  0  0  0  0  0
    1.9451    0.8067    0.5179 H   0  0  0  0  0  0
    1.9326   -0.9350    0.5212 H   0  0  0  0  0  0
    2.0621   -2.2169   -1.6924 H   0  0  0  0  0  0
    2.2517   -1.2392   -3.1985 H   0  0  0  0  0  0
    0.6694   -1.2790   -2.3583 H   0  0  0  0  0  0
    4.0730   -0.8608   -0.7800 H   0  0  0  0  0  0
    3.9286    0.9394   -0.7724 H   0  0  0  0  0  0
    4.0794    0.0626   -2.3319 H   0  0  0  0  0  0
   -4.5354    2.2357    0.8919 H   0  0  0  0  0  0
   -4.5638    2.5036   -0.8652 H   0  0  0  0  0  0
   -4.2286    3.8473    0.2530 H   0  0  0  0  0  0
   -1.0180    5.3002   -0.8656 H   0  0  0  0  0  0
   -2.7186    5.0440   -0.9731 H   0  0  0  0  0  0
   -3.9102    7.7360    1.9770 H   0  0  0  0  0  0
   -3.9267   10.1647    1.5162 H   0  0  0  0  0  0
   -2.0941   11.1817    0.2068 H   0  0  0  0  0  0
   -0.2393    9.7883   -0.6439 H   0  0  0  0  0  0
   -0.2116    7.3631   -0.1891 H   0  0  0  0  0  0
    1.8373    0.7237   -1.8816 H   0  0  0  0  0  0
  1  2  1  0  0  0
  1 30  1  0  0  0
  1 31  1  0  0  0
  1 32  1  0  0  0
  2  3  1  0  0  0
  2 33  1  0  0  0
  2 34  1  0  0  0
  3  4  1  0  0  0
  4  5  2  0  0  0
  4  6  1  0  0  0
  6  7  2  0  0  0
  6 10  1  0  0  0
  7  8  1  0  0  0
  7 22  1  0  0  0
  8  9  1  0  0  0
  8 21  1  0  0  0
  9 10  1  0  0  0
  9 14  2  0  0  0
 10 11  2  0  0  0
 11 12  1  0  0  0
 11 17  1  0  0  0
 12 13  2  0  0  0
 12 16  1  0  0  0
 13 14  1  0  0  0
 13 15  1  0  0  0
 14 35  1  0  0  0
 17 18  1  0  0  0
 17 36  1  0  0  0
 17 37  1  0  0  0
 18 19  1  0  0  0
 18 20  1  0  0  0
 18 54  1  0  0  0
 19 38  1  0  0  0
 19 39  1  0  0  0
 19 40  1  0  0  0
 20 41  1  0  0  0
 20 42  1  0  0  0
 20 43  1  0  0  0
 21 44  1  0  0  0
 21 45  1  0  0  0
 21 46  1  0  0  0
 22 23  1  0  0  0
 22 47  1  0  0  0
 22 48  1  0  0  0
 23 24  1  0  0  0
 24 25  2  0  0  0
 24 29  1  0  0  0
 25 26  1  0  0  0
 25 49  1  0  0  0
 26 27  2  0  0  0
 26 50  1  0  0  0
 27 28  1  0  0  0
 27 51  1  0  0  0
 28 29  2  0  0  0
 28 52  1  0  0  0
 29 53  1  0  0  0
M  CHG  2  16  -1  18   1
M  END
> <s_m_entry_id>
15

> <s_m_entry_name>
Umifenovir2D_Influenza_13609.1

> <chiral flag>
1

> <version>
0

> <s_m_Source_Path>
E:\Projects\DeepLearning\Drug\CORONA\Ligand2D

> <s_m_Source_File>
Umifenovir2D_Influenza_13609.sdf

> <i_m_Source_File_Index>
1

> <DATABASE_ID>
DB13609

> <DATABASE_NAME>
drugbank

> <SMILES>
CCOC(=O)C1=C(CSC2=CC=CC=C2)N(C)C2=CC(Br)=C(O)C(CN(C)C)=C12

> <INCHI_IDENTIFIER>
InChI=1S/C22H25BrN2O3S/c1-5-28-22(27)20-18(13-29-14-9-7-6-8-10-14)25(4)17-11-16(23)21(26)15(19(17)20)12-24(2)3/h6-11,26H,5,12-13H2,1-4H3

> <INCHI_KEY>
KCFYEAOKVJSACF-UHFFFAOYSA-N

> <FORMULA>
C22H25BrN2O3S

> <MOLECULAR_WEIGHT>
477.42

> <EXACT_MASS>
476.076927

> <JCHEM_ACCEPTOR_COUNT>
3

> <JCHEM_ATOM_COUNT>
54

> <JCHEM_AVERAGE_POLARIZABILITY>
48.1741952226716

> <JCHEM_BIOAVAILABILITY>
1

> <JCHEM_DONOR_COUNT>
1

> <JCHEM_FORMAL_CHARGE>
0

> <JCHEM_GHOSE_FILTER>
1

> <JCHEM_IUPAC>
ethyl 6-bromo-4-[(dimethylamino)methyl]-5-hydroxy-1-methyl-2-[(phenylsulfanyl)methyl]-1H-indole-3-carboxylate

> <ALOGPS_LOGP>
4.97

> <JCHEM_LOGP>
3.75353469695525

> <ALOGPS_LOGS>
-4.85

> <JCHEM_MDDR_LIKE_RULE>
1

> <JCHEM_NUMBER_OF_RINGS>
3

> <JCHEM_PHYSIOLOGICAL_CHARGE>
0

> <JCHEM_PKA_STRONGEST_ACIDIC>
6.01401175791311

> <JCHEM_PKA_STRONGEST_BASIC>
9.8726972643957

> <JCHEM_POLAR_SURFACE_AREA>
54.7

> <JCHEM_REFRACTIVITY>
124.4137

> <JCHEM_ROTATABLE_BOND_COUNT>
8

> <JCHEM_RULE_OF_FIVE>
1

> <ALOGPS_SOLUBILITY>
6.78e-03 g/l

> <JCHEM_TRADITIONAL_IUPAC>
ethyl 6-bromo-4-[(dimethylamino)methyl]-5-hydroxy-1-methyl-2-[(phenylsulfanyl)methyl]indole-3-carboxylate

> <JCHEM_VEBER_RULE>
0

> <DRUGBANK_ID>
DB13609

> <DRUG_GROUPS>
investigational

> <GENERIC_NAME>
Umifenovir

> <SYNONYMS>
Umifenovir

> <INTERNATIONAL_BRANDS>
Arbidol; Arbidole

> <chiral flag>
0

> <s_m_source_file>
ligprep_10.maegz

> <i_m_source_file_index>
1

> <i_lp_mmshare_version>
44012

> <i_f3d_flags>
0

> <s_epik_input>
W2NIXTFjKEJyKWMoW09IXSljKFtDSDJdTihbQ0gzXSlbQ0gzXSljKGMxMiljKEMoPU8pT1tDSDJdW0NIM10pYyhuMltDSDNdKVtDSDJdU2MzW2NIXVtjSF1bY0hdW2NIXVtjSF0z

> <s_epik_cmdline>
J2VwaWtfcHl0aG9uJywgJy1waCcsICc3LjAnLCAnLXRuJywgJzgnLCAnLW1hJywgJzIwMCcsICctaW1hZScsICc8aW5maWxlLm1hZT4nLCAnLW9tYWUnLCAnPG91dGZpbGUubWFlPic=

> <r_epik_Ionization_Penalty>
  0.1037

> <r_epik_Ionization_Penalty_Charging>
  0.1037

> <r_epik_Ionization_Penalty_Neutral>
  0.0000

> <r_epik_State_Penalty>
  0.1910

> <r_epik_Charging_Adjusted_Penalty>
0.294736

> <i_epik_Tot_Q>
0

> <i_epik_Tot_abs_Q>
2

> <s_epik_Chemistry_Notes>
This compound has an ester and may undergo hydrolysis at high or low pH.

> <s_lp_Force_Field>
OPLS3e

> <r_lp_Energy>
33.9081

> <b_lp_Chiralities_Consistent>
1

> <s_lp_Variant>
Umifenovir2D_Influenza_13609-1

> <s_m_job_name>
ligprep_10

> <s_m_subgroupid>
ligprep_10-out1

> <s_m_subgroup_title>
ligprep_10-out1

> <b_m_subgroup_collapsed>
0

$$$$
