Galidesivir_Hepa_10445549
  -OEChem-03242008012D

 34 36  0     1  0  0  0  0  0999 V2000
    6.7485   -0.2000    0.0000 O   0  0  0  0  0  0  0  0  0  0  0  0
    6.7523    1.9756    0.0000 O   0  0  0  0  0  0  0  0  0  0  0  0
    5.3548    3.3934    0.0000 O   0  0  0  0  0  0  0  0  0  0  0  0
    4.4026    0.8919    0.0000 N   0  0  0  0  0  0  0  0  0  0  0  0
    4.6783   -2.4782    0.0000 N   0  0  0  0  0  0  0  0  0  0  0  0
    2.8660   -0.6734    0.0000 N   0  0  0  0  0  0  0  0  0  0  0  0
    2.0000   -2.1734    0.0000 N   0  0  0  0  0  0  0  0  0  0  0  0
    2.8660   -3.6734    0.0000 N   0  0  0  0  0  0  0  0  0  0  0  0
    4.9889    0.0818    0.0000 C   0  0  2  0  0  0  0  0  0  0  0  0
    5.9405    0.3892    0.0000 C   0  0  1  0  0  0  0  0  0  0  0  0
    4.9917    1.6999    0.0000 C   0  0  1  0  0  0  0  0  0  0  0  0
    5.9422    1.3892    0.0000 C   0  0  1  0  0  0  0  0  0  0  0  0
    4.6783   -0.8687    0.0000 C   0  0  0  0  0  0  0  0  0  0  0  0
    4.6844    2.6514    0.0000 C   0  0  0  0  0  0  0  0  0  0  0  0
    3.7320   -1.1734    0.0000 C   0  0  0  0  0  0  0  0  0  0  0  0
    5.2619   -1.6734    0.0000 C   0  0  0  0  0  0  0  0  0  0  0  0
    3.7320   -2.1734    0.0000 C   0  0  0  0  0  0  0  0  0  0  0  0
    2.8660   -2.6734    0.0000 C   0  0  0  0  0  0  0  0  0  0  0  0
    2.0000   -1.1734    0.0000 C   0  0  0  0  0  0  0  0  0  0  0  0
    5.5889   -0.5202    0.0000 H   0  0  0  0  0  0  0  0  0  0  0  0
    6.4934    0.6697    0.0000 H   0  0  0  0  0  0  0  0  0  0  0  0
    4.3795    1.7979    0.0000 H   0  0  0  0  0  0  0  0  0  0  0  0
    6.4942    1.1068    0.0000 H   0  0  0  0  0  0  0  0  0  0  0  0
    3.7826    0.8929    0.0000 H   0  0  0  0  0  0  0  0  0  0  0  0
    4.3035    3.1407    0.0000 H   0  0  0  0  0  0  0  0  0  0  0  0
    4.1364    2.3613    0.0000 H   0  0  0  0  0  0  0  0  0  0  0  0
    5.8819   -1.6734    0.0000 H   0  0  0  0  0  0  0  0  0  0  0  0
    7.3154    0.0512    0.0000 H   0  0  0  0  0  0  0  0  0  0  0  0
    7.3182    1.7224    0.0000 H   0  0  0  0  0  0  0  0  0  0  0  0
    4.8709   -3.0675    0.0000 H   0  0  0  0  0  0  0  0  0  0  0  0
    5.1642    3.9834    0.0000 H   0  0  0  0  0  0  0  0  0  0  0  0
    1.4631   -0.8634    0.0000 H   0  0  0  0  0  0  0  0  0  0  0  0
    2.3291   -3.9834    0.0000 H   0  0  0  0  0  0  0  0  0  0  0  0
    3.4030   -3.9834    0.0000 H   0  0  0  0  0  0  0  0  0  0  0  0
 10  1  1  1  0  0  0
  1 28  1  0  0  0  0
 12  2  1  1  0  0  0
  2 29  1  0  0  0  0
  3 14  1  0  0  0  0
  3 31  1  0  0  0  0
  4  9  1  0  0  0  0
  4 11  1  0  0  0  0
  4 24  1  0  0  0  0
  5 16  1  0  0  0  0
  5 17  1  0  0  0  0
  5 30  1  0  0  0  0
  6 15  1  0  0  0  0
  6 19  2  0  0  0  0
  7 18  2  0  0  0  0
  7 19  1  0  0  0  0
  8 18  1  0  0  0  0
  8 33  1  0  0  0  0
  8 34  1  0  0  0  0
  9 10  1  0  0  0  0
  9 13  1  0  0  0  0
  9 20  1  1  0  0  0
 10 12  1  0  0  0  0
 10 21  1  0  0  0  0
 11 12  1  0  0  0  0
 11 14  1  6  0  0  0
 11 22  1  0  0  0  0
 12 23  1  0  0  0  0
 13 15  1  0  0  0  0
 13 16  2  0  0  0  0
 14 25  1  0  0  0  0
 14 26  1  0  0  0  0
 15 17  2  0  0  0  0
 16 27  1  0  0  0  0
 17 18  1  0  0  0  0
 19 32  1  0  0  0  0
M  END
> <PUBCHEM_COMPOUND_CID>
10445549

> <PUBCHEM_COMPOUND_CANONICALIZED>
1

> <PUBCHEM_CACTVS_COMPLEXITY>
334

> <PUBCHEM_CACTVS_HBOND_ACCEPTOR>
7

> <PUBCHEM_CACTVS_HBOND_DONOR>
6

> <PUBCHEM_CACTVS_ROTATABLE_BOND>
2

> <PUBCHEM_CACTVS_SUBSKEYS>
AAADccBzsAAAAAAAAAAAAAAAAAAAAWLAAAAsAAAAAAAAAFgB+AAAHgAQCAAADDzhngYt8LbJkgCgAxZnZACCgC0xEKAB2aAoVJiLeOLA2dGUZAhv0APZyCfw0OMOAAAAAAAAAAAAAAAAAAAAAAAAAAAAAA==

> <PUBCHEM_IUPAC_OPENEYE_NAME>
(2S,3S,4R,5R)-2-(4-amino-5H-pyrrolo[3,2-d]pyrimidin-7-yl)-5-(hydroxymethyl)pyrrolidine-3,4-diol

> <PUBCHEM_IUPAC_CAS_NAME>
(2S,3S,4R,5R)-2-(4-amino-5H-pyrrolo[3,2-d]pyrimidin-7-yl)-5-(hydroxymethyl)pyrrolidine-3,4-diol

> <PUBCHEM_IUPAC_NAME_MARKUP>
(2<I>S</I>,3<I>S</I>,4<I>R</I>,5<I>R</I>)-2-(4-amino-5<I>H</I>-pyrrolo[3,2-d]pyrimidin-7-yl)-5-(hydroxymethyl)pyrrolidine-3,4-diol

> <PUBCHEM_IUPAC_NAME>
(2S,3S,4R,5R)-2-(4-amino-5H-pyrrolo[3,2-d]pyrimidin-7-yl)-5-(hydroxymethyl)pyrrolidine-3,4-diol

> <PUBCHEM_IUPAC_SYSTEMATIC_NAME>
(2S,3S,4R,5R)-2-(4-azanyl-5H-pyrrolo[3,2-d]pyrimidin-7-yl)-5-(hydroxymethyl)pyrrolidine-3,4-diol

> <PUBCHEM_IUPAC_TRADITIONAL_NAME>
(2S,3S,4R,5R)-2-(4-amino-5H-pyrrolo[3,2-d]pyrimidin-7-yl)-5-methylol-pyrrolidine-3,4-diol

> <PUBCHEM_IUPAC_INCHI>
InChI=1S/C11H15N5O3/c12-11-8-6(14-3-15-11)4(1-13-8)7-10(19)9(18)5(2-17)16-7/h1,3,5,7,9-10,13,16-19H,2H2,(H2,12,14,15)/t5-,7+,9-,10+/m1/s1

> <PUBCHEM_IUPAC_INCHIKEY>
AMFDITJFBUXZQN-KUBHLMPHSA-N

> <PUBCHEM_XLOGP3_AA>
-2.1

> <PUBCHEM_EXACT_MASS>
265.117489

> <PUBCHEM_MOLECULAR_FORMULA>
C11H15N5O3

> <PUBCHEM_MOLECULAR_WEIGHT>
265.27

> <PUBCHEM_OPENEYE_CAN_SMILES>
C1=C(C2=C(N1)C(=NC=N2)N)C3C(C(C(N3)CO)O)O

> <PUBCHEM_OPENEYE_ISO_SMILES>
C1=C(C2=C(N1)C(=NC=N2)N)[C@H]3[C@@H]([C@@H]([C@H](N3)CO)O)O

> <PUBCHEM_CACTVS_TPSA>
140

> <PUBCHEM_MONOISOTOPIC_WEIGHT>
265.117489

> <PUBCHEM_TOTAL_CHARGE>
0

> <PUBCHEM_HEAVY_ATOM_COUNT>
19

> <PUBCHEM_ATOM_DEF_STEREO_COUNT>
4

> <PUBCHEM_ATOM_UDEF_STEREO_COUNT>
0

> <PUBCHEM_BOND_DEF_STEREO_COUNT>
0

> <PUBCHEM_BOND_UDEF_STEREO_COUNT>
0

> <PUBCHEM_ISOTOPIC_ATOM_COUNT>
0

> <PUBCHEM_COMPONENT_COUNT>
1

> <PUBCHEM_CACTVS_TAUTO_COUNT>
-1

> <PUBCHEM_COORDINATE_TYPE>
1
5
255

> <PUBCHEM_BONDANNOTATIONS>
10  1  5
11  14  6
13  15  8
13  16  8
15  17  8
17  18  8
12  2  5
5  16  8
5  17  8
6  15  8
6  19  8
7  18  8
7  19  8
9  20  5

$$$$
