Remdesivir_Ebola_121304016
  -OEChem-03242007562D

 77 80  0     1  0  0  0  0  0999 V2000
    8.8890   -1.9989    0.0000 P   0  0  1  0  0  0  0  0  0  0  0  0
   10.3970    1.1738    0.0000 O   0  0  0  0  0  0  0  0  0  0  0  0
   12.9367    0.6782    0.0000 O   0  0  0  0  0  0  0  0  0  0  0  0
   11.6610   -1.0841    0.0000 O   0  0  0  0  0  0  0  0  0  0  0  0
    9.6970   -1.4098    0.0000 O   0  0  0  0  0  0  0  0  0  0  0  0
    9.4782   -2.8069    0.0000 O   0  0  0  0  0  0  0  0  0  0  0  0
    8.2998   -1.1909    0.0000 O   0  0  0  0  0  0  0  0  0  0  0  0
    5.4445   -2.3670    0.0000 O   0  0  0  0  0  0  0  0  0  0  0  0
    6.4650   -3.7665    0.0000 O   0  0  0  0  0  0  0  0  0  0  0  0
   10.0906    2.7397    0.0000 N   0  0  0  0  0  0  0  0  0  0  0  0
    9.2246    2.2397    0.0000 N   0  0  0  0  0  0  0  0  0  0  0  0
    8.0810   -2.5881    0.0000 N   0  0  0  0  0  0  0  0  0  0  0  0
   12.9635    2.6628    0.0000 N   0  0  0  0  0  0  0  0  0  0  0  0
    8.3586    3.7397    0.0000 N   0  0  0  0  0  0  0  0  0  0  0  0
    9.2246    5.2397    0.0000 N   0  0  0  0  0  0  0  0  0  0  0  0
   11.3475    1.4844    0.0000 C   0  0  2  0  0  0  0  0  0  0  0  0
   11.9367    0.6764    0.0000 C   0  0  1  0  0  0  0  0  0  0  0  0
   11.3503   -0.1336    0.0000 C   0  0  1  0  0  0  0  0  0  0  0  0
   10.3987    0.1738    0.0000 C   0  0  1  0  0  0  0  0  0  0  0  0
   11.0369    2.4350    0.0000 C   0  0  0  0  0  0  0  0  0  0  0  0
    9.5907   -0.4154    0.0000 C   0  0  0  0  0  0  0  0  0  0  0  0
   12.1555    2.0736    0.0000 C   0  0  0  0  0  0  0  0  0  0  0  0
   11.6205    3.2397    0.0000 C   0  0  0  0  0  0  0  0  0  0  0  0
   10.0906    3.7397    0.0000 C   0  0  0  0  0  0  0  0  0  0  0  0
   11.0369    4.0444    0.0000 C   0  0  0  0  0  0  0  0  0  0  0  0
    9.2246    4.2397    0.0000 C   0  0  0  0  0  0  0  0  0  0  0  0
    7.1667   -2.1830    0.0000 C   0  0  2  0  0  0  0  0  0  0  0  0
    8.3586    2.7397    0.0000 C   0  0  0  0  0  0  0  0  0  0  0  0
    3.7222   -2.5510    0.0000 C   0  0  0  0  0  0  0  0  0  0  0  0
    4.6365   -2.9562    0.0000 C   0  0  0  0  0  0  0  0  0  0  0  0
    2.9142   -3.1402    0.0000 C   0  0  0  0  0  0  0  0  0  0  0  0
    3.6160   -1.5567    0.0000 C   0  0  0  0  0  0  0  0  0  0  0  0
    6.3587   -2.7722    0.0000 C   0  0  0  0  0  0  0  0  0  0  0  0
    7.0605   -1.1886    0.0000 C   0  0  0  0  0  0  0  0  0  0  0  0
    9.0730   -3.7212    0.0000 C   0  0  0  0  0  0  0  0  0  0  0  0
    2.0000   -2.7351    0.0000 C   0  0  0  0  0  0  0  0  0  0  0  0
    2.7018   -1.1515    0.0000 C   0  0  0  0  0  0  0  0  0  0  0  0
    8.0787   -3.8274    0.0000 C   0  0  0  0  0  0  0  0  0  0  0  0
    9.6622   -4.5292    0.0000 C   0  0  0  0  0  0  0  0  0  0  0  0
    7.6735   -4.7417    0.0000 C   0  0  0  0  0  0  0  0  0  0  0  0
    9.2570   -5.4434    0.0000 C   0  0  0  0  0  0  0  0  0  0  0  0
    8.2627   -5.5497    0.0000 C   0  0  0  0  0  0  0  0  0  0  0  0
   12.2191    0.1245    0.0000 H   0  0  0  0  0  0  0  0  0  0  0  0
   10.9127   -0.5728    0.0000 H   0  0  0  0  0  0  0  0  0  0  0  0
    9.8458    0.4543    0.0000 H   0  0  0  0  0  0  0  0  0  0  0  0
    9.3180    0.1414    0.0000 H   0  0  0  0  0  0  0  0  0  0  0  0
    8.9951   -0.5873    0.0000 H   0  0  0  0  0  0  0  0  0  0  0  0
   13.2476    0.1418    0.0000 H   0  0  0  0  0  0  0  0  0  0  0  0
   12.2405    3.2397    0.0000 H   0  0  0  0  0  0  0  0  0  0  0  0
   12.2677   -1.2120    0.0000 H   0  0  0  0  0  0  0  0  0  0  0  0
   11.2295    4.6337    0.0000 H   0  0  0  0  0  0  0  0  0  0  0  0
    8.1469   -3.2046    0.0000 H   0  0  0  0  0  0  0  0  0  0  0  0
    7.2326   -2.7995    0.0000 H   0  0  0  0  0  0  0  0  0  0  0  0
    3.7881   -3.1675    0.0000 H   0  0  0  0  0  0  0  0  0  0  0  0
    7.8217    2.4297    0.0000 H   0  0  0  0  0  0  0  0  0  0  0  0
    4.2907   -3.4708    0.0000 H   0  0  0  0  0  0  0  0  0  0  0  0
    5.0832   -3.3861    0.0000 H   0  0  0  0  0  0  0  0  0  0  0  0
    2.5684   -3.6548    0.0000 H   0  0  0  0  0  0  0  0  0  0  0  0
    3.3610   -3.5701    0.0000 H   0  0  0  0  0  0  0  0  0  0  0  0
    4.2346   -1.5989    0.0000 H   0  0  0  0  0  0  0  0  0  0  0  0
    3.7650   -0.9548    0.0000 H   0  0  0  0  0  0  0  0  0  0  0  0
    8.6877    5.5497    0.0000 H   0  0  0  0  0  0  0  0  0  0  0  0
    9.7616    5.5497    0.0000 H   0  0  0  0  0  0  0  0  0  0  0  0
    7.6770   -1.1228    0.0000 H   0  0  0  0  0  0  0  0  0  0  0  0
    6.9946   -0.5721    0.0000 H   0  0  0  0  0  0  0  0  0  0  0  0
    6.4440   -1.2545    0.0000 H   0  0  0  0  0  0  0  0  0  0  0  0
    2.2512   -2.1682    0.0000 H   0  0  0  0  0  0  0  0  0  0  0  0
    1.4332   -2.4839    0.0000 H   0  0  0  0  0  0  0  0  0  0  0  0
    1.7488   -3.3019    0.0000 H   0  0  0  0  0  0  0  0  0  0  0  0
    2.9530   -0.5847    0.0000 H   0  0  0  0  0  0  0  0  0  0  0  0
    2.1349   -0.9003    0.0000 H   0  0  0  0  0  0  0  0  0  0  0  0
    2.4505   -1.7184    0.0000 H   0  0  0  0  0  0  0  0  0  0  0  0
    7.7134   -3.3265    0.0000 H   0  0  0  0  0  0  0  0  0  0  0  0
   10.2787   -4.4633    0.0000 H   0  0  0  0  0  0  0  0  0  0  0  0
    7.0570   -4.8076    0.0000 H   0  0  0  0  0  0  0  0  0  0  0  0
    9.6223   -5.9444    0.0000 H   0  0  0  0  0  0  0  0  0  0  0  0
    8.0115   -6.1165    0.0000 H   0  0  0  0  0  0  0  0  0  0  0  0
  1  5  1  6  0  0  0
  1  6  1  0  0  0  0
  1  7  2  0  0  0  0
  1 12  1  0  0  0  0
  2 16  1  0  0  0  0
  2 19  1  0  0  0  0
 17  3  1  6  0  0  0
  3 48  1  0  0  0  0
 18  4  1  6  0  0  0
  4 50  1  0  0  0  0
  5 21  1  0  0  0  0
  6 35  1  0  0  0  0
  8 30  1  0  0  0  0
  8 33  1  0  0  0  0
  9 33  2  0  0  0  0
 10 11  1  0  0  0  0
 10 20  1  0  0  0  0
 10 24  1  0  0  0  0
 11 28  2  0  0  0  0
 27 12  1  6  0  0  0
 12 52  1  0  0  0  0
 13 22  3  0  0  0  0
 14 26  2  0  0  0  0
 14 28  1  0  0  0  0
 15 26  1  0  0  0  0
 15 62  1  0  0  0  0
 15 63  1  0  0  0  0
 16 17  1  0  0  0  0
 16 20  1  0  0  0  0
 16 22  1  6  0  0  0
 17 18  1  0  0  0  0
 17 43  1  0  0  0  0
 18 19  1  0  0  0  0
 18 44  1  0  0  0  0
 19 21  1  1  0  0  0
 19 45  1  0  0  0  0
 20 23  2  0  0  0  0
 21 46  1  0  0  0  0
 21 47  1  0  0  0  0
 23 25  1  0  0  0  0
 23 49  1  0  0  0  0
 24 25  2  0  0  0  0
 24 26  1  0  0  0  0
 25 51  1  0  0  0  0
 27 33  1  0  0  0  0
 27 34  1  0  0  0  0
 27 53  1  0  0  0  0
 28 55  1  0  0  0  0
 29 30  1  0  0  0  0
 29 31  1  0  0  0  0
 29 32  1  0  0  0  0
 29 54  1  0  0  0  0
 30 56  1  0  0  0  0
 30 57  1  0  0  0  0
 31 36  1  0  0  0  0
 31 58  1  0  0  0  0
 31 59  1  0  0  0  0
 32 37  1  0  0  0  0
 32 60  1  0  0  0  0
 32 61  1  0  0  0  0
 34 64  1  0  0  0  0
 34 65  1  0  0  0  0
 34 66  1  0  0  0  0
 35 38  2  0  0  0  0
 35 39  1  0  0  0  0
 36 67  1  0  0  0  0
 36 68  1  0  0  0  0
 36 69  1  0  0  0  0
 37 70  1  0  0  0  0
 37 71  1  0  0  0  0
 37 72  1  0  0  0  0
 38 40  1  0  0  0  0
 38 73  1  0  0  0  0
 39 41  2  0  0  0  0
 39 74  1  0  0  0  0
 40 42  2  0  0  0  0
 40 75  1  0  0  0  0
 41 42  1  0  0  0  0
 41 76  1  0  0  0  0
 42 77  1  0  0  0  0
M  END
> <PUBCHEM_COMPOUND_CID>
121304016

> <PUBCHEM_COMPOUND_CANONICALIZED>
1

> <PUBCHEM_CACTVS_COMPLEXITY>
1010

> <PUBCHEM_CACTVS_HBOND_ACCEPTOR>
13

> <PUBCHEM_CACTVS_HBOND_DONOR>
4

> <PUBCHEM_CACTVS_ROTATABLE_BOND>
14

> <PUBCHEM_CACTVS_SUBSKEYS>
AAADcfB7vAIAAAAAAAAAAAAAAAAAAWJAAAA8QAAAAAAAAFgB8AAAHgAYiCAADXzhlgY3/rZIFxC6RSbzbISShC8xsqAd2KG+fJiL/uLAuZuX8Ahn2BPb6C/w8PcOAAAAAAAAAAAAAAAAAAAAAAAAAAAAAA==

> <PUBCHEM_IUPAC_OPENEYE_NAME>
2-ethylbutyl (2S)-2-[[[(2R,3S,4R,5R)-5-(4-aminopyrrolo[2,1-f][1,2,4]triazin-7-yl)-5-cyano-3,4-dihydroxy-tetrahydrofuran-2-yl]methoxy-phenoxy-phosphoryl]amino]propanoate

> <PUBCHEM_IUPAC_CAS_NAME>
(2S)-2-[[[(2R,3S,4R,5R)-5-(4-amino-7-pyrrolo[2,1-f][1,2,4]triazinyl)-5-cyano-3,4-dihydroxy-2-oxolanyl]methoxy-phenoxyphosphoryl]amino]propanoic acid 2-ethylbutyl ester

> <PUBCHEM_IUPAC_NAME_MARKUP>
2-ethylbutyl (2<I>S</I>)-2-[[[(2<I>R</I>,3<I>S</I>,4<I>R</I>,5<I>R</I>)-5-(4-aminopyrrolo[2,1-f][1,2,4]triazin-7-yl)-5-cyano-3,4-dihydroxyoxolan-2-yl]methoxy-phenoxyphosphoryl]amino]propanoate

> <PUBCHEM_IUPAC_NAME>
2-ethylbutyl (2S)-2-[[[(2R,3S,4R,5R)-5-(4-aminopyrrolo[2,1-f][1,2,4]triazin-7-yl)-5-cyano-3,4-dihydroxyoxolan-2-yl]methoxy-phenoxyphosphoryl]amino]propanoate

> <PUBCHEM_IUPAC_SYSTEMATIC_NAME>
2-ethylbutyl (2S)-2-[[[(2R,3S,4R,5R)-5-(4-azanylpyrrolo[2,1-f][1,2,4]triazin-7-yl)-5-cyano-3,4-bis(oxidanyl)oxolan-2-yl]methoxy-phenoxy-phosphoryl]amino]propanoate

> <PUBCHEM_IUPAC_TRADITIONAL_NAME>
(2S)-2-[[[(2R,3S,4R,5R)-5-(4-aminopyrrolo[2,1-f][1,2,4]triazin-7-yl)-5-cyano-3,4-dihydroxy-tetrahydrofuran-2-yl]methoxy-phenoxy-phosphoryl]amino]propionic acid 2-ethylbutyl ester

> <PUBCHEM_IUPAC_INCHI>
InChI=1S/C27H35N6O8P/c1-4-18(5-2)13-38-26(36)17(3)32-42(37,41-19-9-7-6-8-10-19)39-14-21-23(34)24(35)27(15-28,40-21)22-12-11-20-25(29)30-16-31-33(20)22/h6-12,16-18,21,23-24,34-35H,4-5,13-14H2,1-3H3,(H,32,37)(H2,29,30,31)/t17-,21+,23+,24+,27-,42-/m0/s1

> <PUBCHEM_IUPAC_INCHIKEY>
RWWYLEGWBNMMLJ-YSOARWBDSA-N

> <PUBCHEM_XLOGP3_AA>
1.9

> <PUBCHEM_EXACT_MASS>
602.225399

> <PUBCHEM_MOLECULAR_FORMULA>
C27H35N6O8P

> <PUBCHEM_MOLECULAR_WEIGHT>
602.6

> <PUBCHEM_OPENEYE_CAN_SMILES>
CCC(CC)COC(=O)C(C)NP(=O)(OCC1C(C(C(O1)(C#N)C2=CC=C3N2N=CN=C3N)O)O)OC4=CC=CC=C4

> <PUBCHEM_OPENEYE_ISO_SMILES>
CCC(CC)COC(=O)[C@H](C)N[P@](=O)(OC[C@@H]1[C@H]([C@H]([C@](O1)(C#N)C2=CC=C3N2N=CN=C3N)O)O)OC4=CC=CC=C4

> <PUBCHEM_CACTVS_TPSA>
204

> <PUBCHEM_MONOISOTOPIC_WEIGHT>
602.225399

> <PUBCHEM_TOTAL_CHARGE>
0

> <PUBCHEM_HEAVY_ATOM_COUNT>
42

> <PUBCHEM_ATOM_DEF_STEREO_COUNT>
6

> <PUBCHEM_ATOM_UDEF_STEREO_COUNT>
0

> <PUBCHEM_BOND_DEF_STEREO_COUNT>
0

> <PUBCHEM_BOND_UDEF_STEREO_COUNT>
0

> <PUBCHEM_ISOTOPIC_ATOM_COUNT>
0

> <PUBCHEM_COMPONENT_COUNT>
1

> <PUBCHEM_CACTVS_TAUTO_COUNT>
-1

> <PUBCHEM_COORDINATE_TYPE>
1
5
255

> <PUBCHEM_BONDANNOTATIONS>
1  5  6
10  11  8
10  20  8
10  24  8
11  28  8
27  12  6
14  26  8
14  28  8
16  22  6
19  21  5
20  23  8
23  25  8
24  25  8
24  26  8
17  3  6
35  38  8
35  39  8
38  40  8
39  41  8
18  4  6
40  42  8
41  42  8

$$$$
